6022
  -OEChem-08202606062D

 42 44  0     1  0  0  0  0  0999 V2000
    5.0474    2.6515    0.0000 P   0  0  3  0  0  0  0  0  0  0  0  0
    5.4105    4.3450    0.0000 P   0  0  0  0  0  0  0  0  0  0  0  0
    4.4026   -0.8017    0.0000 O   0  0  0  0  0  0  0  0  0  0  0  0
    6.7485   -1.8936    0.0000 O   0  0  0  0  0  0  0  0  0  0  0  0
    6.7523    0.2820    0.0000 O   0  0  0  0  0  0  0  0  0  0  0  0
    5.3548    1.6999    0.0000 O   0  0  0  0  0  0  0  0  0  0  0  0
    4.7400    3.6030    0.0000 O   0  0  0  0  0  0  0  0  0  0  0  0
    5.9990    2.9588    0.0000 O   0  0  0  0  0  0  0  0  0  0  0  0
    4.0958    2.3441    0.0000 O   0  0  0  0  0  0  0  0  0  0  0  0
    6.0809    5.0870    0.0000 O   0  0  0  0  0  0  0  0  0  0  0  0
    4.6685    5.0154    0.0000 O   0  0  0  0  0  0  0  0  0  0  0  0
    6.1524    3.6746    0.0000 O   0  0  0  0  0  0  0  0  0  0  0  0
    4.6783   -2.5623    0.0000 N   0  0  0  0  0  0  0  0  0  0  0  0
    4.6783   -4.1717    0.0000 N   0  0  0  0  0  0  0  0  0  0  0  0
    2.8660   -2.3670    0.0000 N   0  0  0  0  0  0  0  0  0  0  0  0
    2.0000   -3.8670    0.0000 N   0  0  0  0  0  0  0  0  0  0  0  0
    2.8660   -5.3670    0.0000 N   0  0  0  0  0  0  0  0  0  0  0  0
    5.9405   -1.3044    0.0000 C   0  0  2  0  0  0  0  0  0  0  0  0
    5.9423   -0.3044    0.0000 C   0  0  1  0  0  0  0  0  0  0  0  0
    4.9889   -1.6118    0.0000 C   0  0  1  0  0  0  0  0  0  0  0  0
    4.9917    0.0063    0.0000 C   0  0  1  0  0  0  0  0  0  0  0  0
    4.6844    0.9579    0.0000 C   0  0  0  0  0  0  0  0  0  0  0  0
    3.7321   -2.8670    0.0000 C   0  0  0  0  0  0  0  0  0  0  0  0
    5.2619   -3.3670    0.0000 C   0  0  0  0  0  0  0  0  0  0  0  0
    3.7321   -3.8670    0.0000 C   0  0  0  0  0  0  0  0  0  0  0  0
    2.8660   -4.3670    0.0000 C   0  0  0  0  0  0  0  0  0  0  0  0
    2.0000   -2.8670    0.0000 C   0  0  0  0  0  0  0  0  0  0  0  0
    5.8425   -1.9166    0.0000 H   0  0  0  0  0  0  0  0  0  0  0  0
    6.4942   -0.5868    0.0000 H   0  0  0  0  0  0  0  0  0  0  0  0
    5.4266   -2.0509    0.0000 H   0  0  0  0  0  0  0  0  0  0  0  0
    4.3795    0.1043    0.0000 H   0  0  0  0  0  0  0  0  0  0  0  0
    4.3035    1.4471    0.0000 H   0  0  0  0  0  0  0  0  0  0  0  0
    4.1364    0.6678    0.0000 H   0  0  0  0  0  0  0  0  0  0  0  0
    7.3154   -1.6424    0.0000 H   0  0  0  0  0  0  0  0  0  0  0  0
    7.3183    0.0289    0.0000 H   0  0  0  0  0  0  0  0  0  0  0  0
    5.8819   -3.3670    0.0000 H   0  0  0  0  0  0  0  0  0  0  0  0
    1.4631   -2.5570    0.0000 H   0  0  0  0  0  0  0  0  0  0  0  0
    2.3291   -5.6770    0.0000 H   0  0  0  0  0  0  0  0  0  0  0  0
    3.4030   -5.6770    0.0000 H   0  0  0  0  0  0  0  0  0  0  0  0
    6.4590    2.5432    0.0000 H   0  0  0  0  0  0  0  0  0  0  0  0
    5.8903    5.6770    0.0000 H   0  0  0  0  0  0  0  0  0  0  0  0
    4.0785    4.8249    0.0000 H   0  0  0  0  0  0  0  0  0  0  0  0
  1  6  1  0  0  0  0
  1  7  1  0  0  0  0
  1  8  1  0  0  0  0
  1  9  2  0  0  0  0
  2  7  1  0  0  0  0
  2 10  1  0  0  0  0
  2 11  1  0  0  0  0
  2 12  2  0  0  0  0
  3 20  1  0  0  0  0
  3 21  1  0  0  0  0
 18  4  1  1  0  0  0
  4 34  1  0  0  0  0
 19  5  1  1  0  0  0
  5 35  1  0  0  0  0
  6 22  1  0  0  0  0
  8 40  1  0  0  0  0
 10 41  1  0  0  0  0
 11 42  1  0  0  0  0
 20 13  1  6  0  0  0
 13 23  1  0  0  0  0
 13 24  1  0  0  0  0
 14 24  2  0  0  0  0
 14 25  1  0  0  0  0
 15 23  2  0  0  0  0
 15 27  1  0  0  0  0
 16 26  1  0  0  0  0
 16 27  2  0  0  0  0
 17 26  1  0  0  0  0
 17 38  1  0  0  0  0
 17 39  1  0  0  0  0
 18 19  1  0  0  0  0
 18 20  1  0  0  0  0
 18 28  1  0  0  0  0
 19 21  1  0  0  0  0
 19 29  1  0  0  0  0
 20 30  1  0  0  0  0
 21 22  1  6  0  0  0
 21 31  1  0  0  0  0
 22 32  1  0  0  0  0
 22 33  1  0  0  0  0
 23 25  1  0  0  0  0
 24 36  1  0  0  0  0
 25 26  2  0  0  0  0
 27 37  1  0  0  0  0
M  END
> <PUBCHEM_COMPOUND_CID>
6022

> <PUBCHEM_COMPOUND_CANONICALIZED>
1

> <PUBCHEM_CACTVS_COMPLEXITY>
637

> <PUBCHEM_CACTVS_HBOND_ACCEPTOR>
14

> <PUBCHEM_CACTVS_HBOND_DONOR>
6

> <PUBCHEM_CACTVS_ROTATABLE_BOND>
6

> <PUBCHEM_CACTVS_SUBSKEYS>
AAADccBzvAMAAAAAAAAAAAAAAAAAAWJAAAAsAAAAAAAAAFgB+AAAHgAQCCAACBzhlwYF8L9MFxCgQQZhZICAgC0REKABUCAoVBCDWAJAyEAeRAgPAALTACDwMAIAAAAAAAAAAAAAAAAAAAAAAAAAAAAAAA==

> <PUBCHEM_IUPAC_OPENEYE_NAME>
[(2R,3S,4R,5R)-5-(6-aminopurin-9-yl)-3,4-dihydroxy-tetrahydrofuran-2-yl]methyl phosphono hydrogen phosphate

> <PUBCHEM_IUPAC_CAS_NAME>
[(2R,3S,4R,5R)-5-(6-aminopurin-9-yl)-3,4-dihydroxy-2-oxolanyl]methyl phosphono hydrogen phosphate

> <PUBCHEM_IUPAC_NAME_MARKUP>
[(2<I>R</I>,3<I>S</I>,4<I>R</I>,5<I>R</I>)-5-(6-aminopurin-9-yl)-3,4-dihydroxyoxolan-2-yl]methyl phosphono hydrogen phosphate

> <PUBCHEM_IUPAC_NAME>
[(2R,3S,4R,5R)-5-(6-aminopurin-9-yl)-3,4-dihydroxyoxolan-2-yl]methyl phosphono hydrogen phosphate

> <PUBCHEM_IUPAC_SYSTEMATIC_NAME>
[(2R,3S,4R,5R)-5-(6-aminopurin-9-yl)-3,4-bis(oxidanyl)oxolan-2-yl]methyl phosphono hydrogen phosphate

> <PUBCHEM_IUPAC_TRADITIONAL_NAME>
[(2R,3S,4R,5R)-5-adenin-9-yl-3,4-dihydroxy-tetrahydrofuran-2-yl]methyl phosphono hydrogen phosphate

> <PUBCHEM_IUPAC_INCHI>
InChI=1S/C10H15N5O10P2/c11-8-5-9(13-2-12-8)15(3-14-5)10-7(17)6(16)4(24-10)1-23-27(21,22)25-26(18,19)20/h2-4,6-7,10,16-17H,1H2,(H,21,22)(H2,11,12,13)(H2,18,19,20)/t4-,6-,7-,10-/m1/s1

> <PUBCHEM_IUPAC_INCHIKEY>
XTWYTFMLZFPYCI-KQYNXXCUSA-N

> <PUBCHEM_XLOGP3>
-4.6

> <PUBCHEM_EXACT_MASS>
427.02941569

> <PUBCHEM_MOLECULAR_FORMULA>
C10H15N5O10P2

> <PUBCHEM_MOLECULAR_WEIGHT>
427.20

> <PUBCHEM_SMILES>
C1=NC(=C2C(=N1)N(C=N2)[C@H]3[C@@H]([C@@H]([C@H](O3)COP(=O)(O)OP(=O)(O)O)O)O)N

> <PUBCHEM_CONNECTIVITY_SMILES>
C1=NC(=C2C(=N1)N(C=N2)C3C(C(C(O3)COP(=O)(O)OP(=O)(O)O)O)O)N

> <PUBCHEM_CACTVS_TPSA>
233

> <PUBCHEM_MONOISOTOPIC_WEIGHT>
427.02941569

> <PUBCHEM_TOTAL_CHARGE>
0

> <PUBCHEM_HEAVY_ATOM_COUNT>
27

> <PUBCHEM_ATOM_DEF_STEREO_COUNT>
4

> <PUBCHEM_ATOM_UDEF_STEREO_COUNT>
0

> <PUBCHEM_BOND_DEF_STEREO_COUNT>
0

> <PUBCHEM_BOND_UDEF_STEREO_COUNT>
0

> <PUBCHEM_ISOTOPIC_ATOM_COUNT>
0

> <PUBCHEM_COMPONENT_COUNT>
1

> <PUBCHEM_CACTVS_TAUTO_COUNT>
-1

> <PUBCHEM_COORDINATE_TYPE>
1
5
255

> <PUBCHEM_BONDANNOTATIONS>
20  13  6
13  23  8
13  24  8
14  24  8
14  25  8
15  23  8
15  27  8
16  26  8
16  27  8
21  22  6
23  25  8
25  26  8
18  4  5
19  5  5

$$$$
