297
  -OEChem-08202604173D

  5  4  0     0  0  0  0  0  0999 V2000
    0.0000    0.0000    0.0000 C   0  0  0  0  0  0  0  0  0  0  0  0
    0.5541    0.7996    0.4965 H   0  0  0  0  0  0  0  0  0  0  0  0
    0.6833   -0.8134   -0.2536 H   0  0  0  0  0  0  0  0  0  0  0  0
   -0.7782   -0.3735    0.6692 H   0  0  0  0  0  0  0  0  0  0  0  0
   -0.4593    0.3874   -0.9121 H   0  0  0  0  0  0  0  0  0  0  0  0
  1  2  1  0  0  0  0
  1  3  1  0  0  0  0
  1  4  1  0  0  0  0
  1  5  1  0  0  0  0
M  END
> <PUBCHEM_COMPOUND_CID>
297

> <PUBCHEM_CONFORMER_RMSD>
0.4

> <PUBCHEM_CONFORMER_DIVERSEORDER>
1

> <PUBCHEM_MMFF94_PARTIAL_CHARGES>
0

> <PUBCHEM_EFFECTIVE_ROTOR_COUNT>
0

> <PUBCHEM_PHARMACOPHORE_FEATURES>
0

> <PUBCHEM_HEAVY_ATOM_COUNT>
1

> <PUBCHEM_ATOM_DEF_STEREO_COUNT>
0

> <PUBCHEM_ATOM_UDEF_STEREO_COUNT>
0

> <PUBCHEM_BOND_DEF_STEREO_COUNT>
0

> <PUBCHEM_BOND_UDEF_STEREO_COUNT>
0

> <PUBCHEM_ISOTOPIC_ATOM_COUNT>
0

> <PUBCHEM_COMPONENT_COUNT>
1

> <PUBCHEM_CACTVS_TAUTO_COUNT>
1

> <PUBCHEM_CONFORMER_ID>
0000012900000001

> <PUBCHEM_MMFF94_ENERGY>
0.0264

> <PUBCHEM_FEATURE_SELFOVERLAP>
0

> <PUBCHEM_SHAPE_FINGERPRINT>
260 1 18410856563934756871

> <PUBCHEM_SHAPE_MULTIPOLES>
20.58
0.62
0.62
0.62
0
0
0
0
0
0
0
0
0
0

> <PUBCHEM_SHAPE_SELFOVERLAP>
19.645

> <PUBCHEM_SHAPE_VOLUME>
20.6

> <PUBCHEM_COORDINATE_TYPE>
10
5
2

$$$$
6324
  -OEChem-08202604173D

  8  7  0     0  0  0  0  0  0999 V2000
   -0.7560    0.0000    0.0000 C   0  0  0  0  0  0  0  0  0  0  0  0
    0.7560    0.0000    0.0000 C   0  0  0  0  0  0  0  0  0  0  0  0
   -1.1404    0.6586    0.7845 H   0  0  0  0  0  0  0  0  0  0  0  0
   -1.1404    0.3501   -0.9626 H   0  0  0  0  0  0  0  0  0  0  0  0
   -1.1405   -1.0087    0.1781 H   0  0  0  0  0  0  0  0  0  0  0  0
    1.1404   -0.3501    0.9626 H   0  0  0  0  0  0  0  0  0  0  0  0
    1.1405    1.0087   -0.1781 H   0  0  0  0  0  0  0  0  0  0  0  0
    1.1404   -0.6586   -0.7845 H   0  0  0  0  0  0  0  0  0  0  0  0
  1  2  1  0  0  0  0
  1  3  1  0  0  0  0
  1  4  1  0  0  0  0
  1  5  1  0  0  0  0
  2  6  1  0  0  0  0
  2  7  1  0  0  0  0
  2  8  1  0  0  0  0
M  END
> <PUBCHEM_COMPOUND_CID>
6324

> <PUBCHEM_CONFORMER_RMSD>
0.4

> <PUBCHEM_CONFORMER_DIVERSEORDER>
1

> <PUBCHEM_MMFF94_PARTIAL_CHARGES>
0

> <PUBCHEM_EFFECTIVE_ROTOR_COUNT>
0

> <PUBCHEM_PHARMACOPHORE_FEATURES>
2
1 1 hydrophobe
1 2 hydrophobe

> <PUBCHEM_HEAVY_ATOM_COUNT>
2

> <PUBCHEM_ATOM_DEF_STEREO_COUNT>
0

> <PUBCHEM_ATOM_UDEF_STEREO_COUNT>
0

> <PUBCHEM_BOND_DEF_STEREO_COUNT>
0

> <PUBCHEM_BOND_UDEF_STEREO_COUNT>
0

> <PUBCHEM_ISOTOPIC_ATOM_COUNT>
0

> <PUBCHEM_COMPONENT_COUNT>
1

> <PUBCHEM_CACTVS_TAUTO_COUNT>
1

> <PUBCHEM_CONFORMER_ID>
000018B400000001

> <PUBCHEM_MMFF94_ENERGY>
-4.7344

> <PUBCHEM_FEATURE_SELFOVERLAP>
11.18

> <PUBCHEM_SHAPE_FINGERPRINT>
21015797 1 18122626329516965916
260 1 18410856563934756871

> <PUBCHEM_SHAPE_MULTIPOLES>
41.16
1.19
0.62
0.62
0
0
0
0
0
0
0
0
0
0

> <PUBCHEM_SHAPE_SELFOVERLAP>
54.823

> <PUBCHEM_SHAPE_VOLUME>
33.4

> <PUBCHEM_COORDINATE_TYPE>
2
5
10

$$$$
6334
  -OEChem-08202604173D

 11 10  0     0  0  0  0  0  0999 V2000
    0.0000   -0.5689    0.0000 C   0  0  0  0  0  0  0  0  0  0  0  0
   -1.2571    0.2844    0.0000 C   0  0  0  0  0  0  0  0  0  0  0  0
    1.2571    0.2845    0.0000 C   0  0  0  0  0  0  0  0  0  0  0  0
    0.0000   -1.2183    0.8824 H   0  0  0  0  0  0  0  0  0  0  0  0
    0.0000   -1.2183   -0.8824 H   0  0  0  0  0  0  0  0  0  0  0  0
   -1.2969    0.9244    0.8873 H   0  0  0  0  0  0  0  0  0  0  0  0
   -1.2967    0.9245   -0.8872 H   0  0  0  0  0  0  0  0  0  0  0  0
   -2.1475   -0.3520   -0.0001 H   0  0  0  0  0  0  0  0  0  0  0  0
    2.1475   -0.3520    0.0000 H   0  0  0  0  0  0  0  0  0  0  0  0
    1.2968    0.9245    0.8872 H   0  0  0  0  0  0  0  0  0  0  0  0
    1.2968    0.9245   -0.8872 H   0  0  0  0  0  0  0  0  0  0  0  0
  1  2  1  0  0  0  0
  1  3  1  0  0  0  0
  1  4  1  0  0  0  0
  1  5  1  0  0  0  0
  2  6  1  0  0  0  0
  2  7  1  0  0  0  0
  2  8  1  0  0  0  0
  3  9  1  0  0  0  0
  3 10  1  0  0  0  0
  3 11  1  0  0  0  0
M  END
> <PUBCHEM_COMPOUND_CID>
6334

> <PUBCHEM_CONFORMER_RMSD>
0.4

> <PUBCHEM_CONFORMER_DIVERSEORDER>
1

> <PUBCHEM_MMFF94_PARTIAL_CHARGES>
0

> <PUBCHEM_EFFECTIVE_ROTOR_COUNT>
0

> <PUBCHEM_PHARMACOPHORE_FEATURES>
1
3 1 2 3 hydrophobe

> <PUBCHEM_HEAVY_ATOM_COUNT>
3

> <PUBCHEM_ATOM_DEF_STEREO_COUNT>
0

> <PUBCHEM_ATOM_UDEF_STEREO_COUNT>
0

> <PUBCHEM_BOND_DEF_STEREO_COUNT>
0

> <PUBCHEM_BOND_UDEF_STEREO_COUNT>
0

> <PUBCHEM_ISOTOPIC_ATOM_COUNT>
0

> <PUBCHEM_COMPONENT_COUNT>
1

> <PUBCHEM_CACTVS_TAUTO_COUNT>
1

> <PUBCHEM_CONFORMER_ID>
000018BE00000001

> <PUBCHEM_MMFF94_ENERGY>
-4.8973

> <PUBCHEM_FEATURE_SELFOVERLAP>
5.074

> <PUBCHEM_SHAPE_FINGERPRINT>
139733 1 18410856559639874021
21015797 1 18048037664017453423

> <PUBCHEM_SHAPE_MULTIPOLES>
61.74
1.67
0.78
0.62
0
0.05
0
-0.3
0
0
0
0
0
0

> <PUBCHEM_SHAPE_SELFOVERLAP>
92.779

> <PUBCHEM_SHAPE_VOLUME>
46.4

> <PUBCHEM_COORDINATE_TYPE>
2
5
10

$$$$
7843
  -OEChem-08202604173D

 14 13  0     0  0  0  0  0  0999 V2000
   -0.5630    0.5160    0.0071 C   0  0  0  0  0  0  0  0  0  0  0  0
    0.5630   -0.5159    0.0071 C   0  0  0  0  0  0  0  0  0  0  0  0
   -1.9293   -0.1506   -0.0071 C   0  0  0  0  0  0  0  0  0  0  0  0
    1.9294    0.1505   -0.0071 C   0  0  0  0  0  0  0  0  0  0  0  0
   -0.4724    1.1666   -0.8706 H   0  0  0  0  0  0  0  0  0  0  0  0
   -0.4825    1.1551    0.8940 H   0  0  0  0  0  0  0  0  0  0  0  0
    0.4825   -1.1551    0.8940 H   0  0  0  0  0  0  0  0  0  0  0  0
    0.4723   -1.1665   -0.8706 H   0  0  0  0  0  0  0  0  0  0  0  0
   -2.0542   -0.7710   -0.9003 H   0  0  0  0  0  0  0  0  0  0  0  0
   -2.0651   -0.7856    0.8742 H   0  0  0  0  0  0  0  0  0  0  0  0
   -2.7203    0.6060   -0.0058 H   0  0  0  0  0  0  0  0  0  0  0  0
    2.0542    0.7709   -0.9003 H   0  0  0  0  0  0  0  0  0  0  0  0
    2.7202   -0.6062   -0.0059 H   0  0  0  0  0  0  0  0  0  0  0  0
    2.0652    0.7854    0.8743 H   0  0  0  0  0  0  0  0  0  0  0  0
  1  2  1  0  0  0  0
  1  3  1  0  0  0  0
  1  5  1  0  0  0  0
  1  6  1  0  0  0  0
  2  4  1  0  0  0  0
  2  7  1  0  0  0  0
  2  8  1  0  0  0  0
  3  9  1  0  0  0  0
  3 10  1  0  0  0  0
  3 11  1  0  0  0  0
  4 12  1  0  0  0  0
  4 13  1  0  0  0  0
  4 14  1  0  0  0  0
M  END
> <PUBCHEM_COMPOUND_CID>
7843

> <PUBCHEM_CONFORMER_RMSD>
0.4

> <PUBCHEM_CONFORMER_DIVERSEORDER>
1
3
2

> <PUBCHEM_MMFF94_PARTIAL_CHARGES>
0

> <PUBCHEM_EFFECTIVE_ROTOR_COUNT>
1

> <PUBCHEM_PHARMACOPHORE_FEATURES>
2
1 3 hydrophobe
1 4 hydrophobe

> <PUBCHEM_HEAVY_ATOM_COUNT>
4

> <PUBCHEM_ATOM_DEF_STEREO_COUNT>
0

> <PUBCHEM_ATOM_UDEF_STEREO_COUNT>
0

> <PUBCHEM_BOND_DEF_STEREO_COUNT>
0

> <PUBCHEM_BOND_UDEF_STEREO_COUNT>
0

> <PUBCHEM_ISOTOPIC_ATOM_COUNT>
0

> <PUBCHEM_COMPONENT_COUNT>
1

> <PUBCHEM_CACTVS_TAUTO_COUNT>
1

> <PUBCHEM_CONFORMER_ID>
00001EA300000001

> <PUBCHEM_MMFF94_ENERGY>
-5.0725

> <PUBCHEM_FEATURE_SELFOVERLAP>
10.149

> <PUBCHEM_SHAPE_FINGERPRINT>
139733 1 9151174250963444929
16714656 1 18273218616069692790
20096714 4 18412826910499937960
21015797 1 9294413132392824864
5460574 1 9295291637888450562

> <PUBCHEM_SHAPE_MULTIPOLES>
82.32
2.64
0.76
0.62
0
0
0
0
-0.01
0
0
0
0
0

> <PUBCHEM_SHAPE_SELFOVERLAP>
130.674

> <PUBCHEM_SHAPE_VOLUME>
59.3

> <PUBCHEM_COORDINATE_TYPE>
2
5
10

$$$$
8003
  -OEChem-08202604173D

 17 16  0     0  0  0  0  0  0999 V2000
    0.0000    0.3478   -0.0228 C   0  0  0  0  0  0  0  0  0  0  0  0
    1.2621   -0.5140   -0.0001 C   0  0  0  0  0  0  0  0  0  0  0  0
   -1.2621   -0.5140   -0.0001 C   0  0  0  0  0  0  0  0  0  0  0  0
    2.5198    0.3401    0.0115 C   0  0  0  0  0  0  0  0  0  0  0  0
   -2.5199    0.3401    0.0115 C   0  0  0  0  0  0  0  0  0  0  0  0
    0.0000    0.9783   -0.9202 H   0  0  0  0  0  0  0  0  0  0  0  0
    0.0000    1.0201    0.8439 H   0  0  0  0  0  0  0  0  0  0  0  0
    1.2800   -1.1710   -0.8775 H   0  0  0  0  0  0  0  0  0  0  0  0
    1.2583   -1.1576    0.8874 H   0  0  0  0  0  0  0  0  0  0  0  0
   -1.2799   -1.1710   -0.8774 H   0  0  0  0  0  0  0  0  0  0  0  0
   -1.2582   -1.1576    0.8873 H   0  0  0  0  0  0  0  0  0  0  0  0
    2.5484    0.9847    0.8958 H   0  0  0  0  0  0  0  0  0  0  0  0
    2.5708    0.9752   -0.8788 H   0  0  0  0  0  0  0  0  0  0  0  0
    3.4101   -0.2964    0.0264 H   0  0  0  0  0  0  0  0  0  0  0  0
   -2.5484    0.9848    0.8958 H   0  0  0  0  0  0  0  0  0  0  0  0
   -3.4101   -0.2964    0.0263 H   0  0  0  0  0  0  0  0  0  0  0  0
   -2.5709    0.9750   -0.8787 H   0  0  0  0  0  0  0  0  0  0  0  0
  1  2  1  0  0  0  0
  1  3  1  0  0  0  0
  1  6  1  0  0  0  0
  1  7  1  0  0  0  0
  2  4  1  0  0  0  0
  2  8  1  0  0  0  0
  2  9  1  0  0  0  0
  3  5  1  0  0  0  0
  3 10  1  0  0  0  0
  3 11  1  0  0  0  0
  4 12  1  0  0  0  0
  4 13  1  0  0  0  0
  4 14  1  0  0  0  0
  5 15  1  0  0  0  0
  5 16  1  0  0  0  0
  5 17  1  0  0  0  0
M  END
> <PUBCHEM_COMPOUND_CID>
8003

> <PUBCHEM_CONFORMER_RMSD>
0.4

> <PUBCHEM_CONFORMER_DIVERSEORDER>
1
4
5
2
3

> <PUBCHEM_MMFF94_PARTIAL_CHARGES>
0

> <PUBCHEM_EFFECTIVE_ROTOR_COUNT>
2

> <PUBCHEM_PHARMACOPHORE_FEATURES>
2
1 4 hydrophobe
1 5 hydrophobe

> <PUBCHEM_HEAVY_ATOM_COUNT>
5

> <PUBCHEM_ATOM_DEF_STEREO_COUNT>
0

> <PUBCHEM_ATOM_UDEF_STEREO_COUNT>
0

> <PUBCHEM_BOND_DEF_STEREO_COUNT>
0

> <PUBCHEM_BOND_UDEF_STEREO_COUNT>
0

> <PUBCHEM_ISOTOPIC_ATOM_COUNT>
0

> <PUBCHEM_COMPONENT_COUNT>
1

> <PUBCHEM_CACTVS_TAUTO_COUNT>
1

> <PUBCHEM_CONFORMER_ID>
00001F4300000001

> <PUBCHEM_MMFF94_ENERGY>
-5.2609

> <PUBCHEM_FEATURE_SELFOVERLAP>
10.149

> <PUBCHEM_SHAPE_FINGERPRINT>
139733 1 9511462220978991821
14390081 3 18272929440206324224
16714656 1 18412826884619234557
20096714 4 18410855485908534568
29004967 10 16153429432622070120
5460574 1 9295290538482337319

> <PUBCHEM_SHAPE_MULTIPOLES>
102.9
3.79
0.79
0.62
0
0.03
0
-0.54
0.03
0
0
0
0
0

> <PUBCHEM_SHAPE_SELFOVERLAP>
168.554

> <PUBCHEM_SHAPE_VOLUME>
72.3

> <PUBCHEM_COORDINATE_TYPE>
2
5
10

$$$$
