33613
  -OEChem-08202606063D

 44 46  0     1  0  0  0  0  0999 V2000
    0.8127   -0.5305    1.0470 S   0  0  0  0  0  0  0  0  0  0  0  0
    2.5412    1.9384   -2.1377 O   0  0  0  0  0  0  0  0  0  0  0  0
    5.1164   -1.8059   -0.0667 O   0  0  0  0  0  0  0  0  0  0  0  0
    4.3753   -0.4801    1.6331 O   0  0  0  0  0  0  0  0  0  0  0  0
   -1.1798    2.4440    1.6021 O   0  0  0  0  0  0  0  0  0  0  0  0
   -4.1594   -3.4891    0.0834 O   0  0  0  0  0  0  0  0  0  0  0  0
    2.7863    0.7498   -0.1147 N   0  0  0  0  0  0  0  0  0  0  0  0
   -0.1496    1.9689   -0.4201 N   0  0  0  0  0  0  0  0  0  0  0  0
   -3.5725    2.8271    0.2755 N   0  0  0  0  0  0  0  0  0  0  0  0
    1.8063    1.0059    0.9417 C   0  0  1  0  0  0  0  0  0  0  0  0
    1.8293   -1.4420   -0.2179 C   0  0  0  0  0  0  0  0  0  0  0  0
    3.1210   -0.6204   -0.4284 C   0  0  2  0  0  0  0  0  0  0  0  0
    1.2349    2.1188    0.0479 C   0  0  1  0  0  0  0  0  0  0  0  0
    2.2954    1.6814   -0.9812 C   0  0  0  0  0  0  0  0  0  0  0  0
    2.0775   -2.8717    0.2742 C   0  0  0  0  0  0  0  0  0  0  0  0
    1.0045   -1.4983   -1.5148 C   0  0  0  0  0  0  0  0  0  0  0  0
    4.2478   -0.9379    0.5072 C   0  0  0  0  0  0  0  0  0  0  0  0
   -1.2582    2.1473    0.4110 C   0  0  0  0  0  0  0  0  0  0  0  0
   -2.5838    1.9144   -0.3056 C   0  0  1  0  0  0  0  0  0  0  0  0
   -3.0064    0.4636   -0.2012 C   0  0  0  0  0  0  0  0  0  0  0  0
   -3.1874   -0.2708   -1.3592 C   0  0  0  0  0  0  0  0  0  0  0  0
   -3.2022   -0.0926    1.0502 C   0  0  0  0  0  0  0  0  0  0  0  0
   -3.5775   -1.6066   -1.2626 C   0  0  0  0  0  0  0  0  0  0  0  0
   -3.5921   -1.4285    1.1467 C   0  0  0  0  0  0  0  0  0  0  0  0
   -3.7798   -2.1854   -0.0097 C   0  0  0  0  0  0  0  0  0  0  0  0
    2.2561    1.3404    1.8807 H   0  0  0  0  0  0  0  0  0  0  0  0
    3.4766   -0.6650   -1.4646 H   0  0  0  0  0  0  0  0  0  0  0  0
    1.4211    3.1321    0.4236 H   0  0  0  0  0  0  0  0  0  0  0  0
    1.1390   -3.4302    0.3738 H   0  0  0  0  0  0  0  0  0  0  0  0
    2.7069   -3.4212   -0.4352 H   0  0  0  0  0  0  0  0  0  0  0  0
    2.5758   -2.8963    1.2496 H   0  0  0  0  0  0  0  0  0  0  0  0
    1.5603   -2.0263   -2.2987 H   0  0  0  0  0  0  0  0  0  0  0  0
    0.0600   -2.0365   -1.3702 H   0  0  0  0  0  0  0  0  0  0  0  0
    0.7635   -0.5048   -1.9058 H   0  0  0  0  0  0  0  0  0  0  0  0
   -0.3223    1.7159   -1.3903 H   0  0  0  0  0  0  0  0  0  0  0  0
   -2.4633    2.1960   -1.3593 H   0  0  0  0  0  0  0  0  0  0  0  0
    5.8621   -2.0269    0.5312 H   0  0  0  0  0  0  0  0  0  0  0  0
   -4.4541    2.7374   -0.2289 H   0  0  0  0  0  0  0  0  0  0  0  0
   -3.2689    3.7907    0.1369 H   0  0  0  0  0  0  0  0  0  0  0  0
   -3.0315    0.1684   -2.3400 H   0  0  0  0  0  0  0  0  0  0  0  0
   -3.0658    0.4817    1.9615 H   0  0  0  0  0  0  0  0  0  0  0  0
   -3.7211   -2.1915   -2.1670 H   0  0  0  0  0  0  0  0  0  0  0  0
   -3.7470   -1.8675    2.1286 H   0  0  0  0  0  0  0  0  0  0  0  0
   -4.2526   -3.7236    1.0227 H   0  0  0  0  0  0  0  0  0  0  0  0
  1 10  1  0  0  0  0
  1 11  1  0  0  0  0
  2 14  2  0  0  0  0
  3 17  1  0  0  0  0
  3 37  1  0  0  0  0
  4 17  2  0  0  0  0
  5 18  2  0  0  0  0
  6 25  1  0  0  0  0
  6 44  1  0  0  0  0
  7 10  1  0  0  0  0
  7 12  1  0  0  0  0
  7 14  1  0  0  0  0
  8 13  1  0  0  0  0
  8 18  1  0  0  0  0
  8 35  1  0  0  0  0
  9 19  1  0  0  0  0
  9 38  1  0  0  0  0
  9 39  1  0  0  0  0
 10 13  1  0  0  0  0
 10 26  1  0  0  0  0
 11 12  1  0  0  0  0
 11 15  1  0  0  0  0
 11 16  1  0  0  0  0
 12 17  1  0  0  0  0
 12 27  1  0  0  0  0
 13 14  1  0  0  0  0
 13 28  1  0  0  0  0
 15 29  1  0  0  0  0
 15 30  1  0  0  0  0
 15 31  1  0  0  0  0
 16 32  1  0  0  0  0
 16 33  1  0  0  0  0
 16 34  1  0  0  0  0
 18 19  1  0  0  0  0
 19 20  1  0  0  0  0
 19 36  1  0  0  0  0
 20 21  2  0  0  0  0
 20 22  1  0  0  0  0
 21 23  1  0  0  0  0
 21 40  1  0  0  0  0
 22 24  2  0  0  0  0
 22 41  1  0  0  0  0
 23 25  2  0  0  0  0
 23 42  1  0  0  0  0
 24 25  1  0  0  0  0
 24 43  1  0  0  0  0
M  END
> <PUBCHEM_COMPOUND_CID>
33613

> <PUBCHEM_CONFORMER_RMSD>
0.8

> <PUBCHEM_CONFORMER_DIVERSEORDER>
1
8
17
10
18
14
29
12
3
23
25
13
15
27
21
6
20
16
26
7
24
19
9
28
5
2
11
4
22

> <PUBCHEM_MMFF94_PARTIAL_CHARGES>
32
1 -0.45
10 0.44
11 0.23
12 0.36
13 0.28
14 0.58
17 0.66
18 0.57
19 0.47
2 -0.57
20 -0.14
21 -0.15
22 -0.15
23 -0.15
24 -0.15
25 0.08
3 -0.65
35 0.37
37 0.5
38 0.36
39 0.36
4 -0.57
40 0.15
41 0.15
42 0.15
43 0.15
44 0.45
5 -0.57
6 -0.53
7 -0.59
8 -0.65
9 -0.99

> <PUBCHEM_EFFECTIVE_ROTOR_COUNT>
5.8

> <PUBCHEM_PHARMACOPHORE_FEATURES>
12
1 2 acceptor
1 3 acceptor
1 4 acceptor
1 5 acceptor
1 6 donor
1 8 donor
1 9 cation
1 9 donor
3 11 15 16 hydrophobe
3 3 4 17 anion
6 20 21 22 23 24 25 rings
7 1 7 10 11 12 13 14 rings

> <PUBCHEM_HEAVY_ATOM_COUNT>
25

> <PUBCHEM_ATOM_DEF_STEREO_COUNT>
4

> <PUBCHEM_ATOM_UDEF_STEREO_COUNT>
0

> <PUBCHEM_BOND_DEF_STEREO_COUNT>
0

> <PUBCHEM_BOND_UDEF_STEREO_COUNT>
0

> <PUBCHEM_ISOTOPIC_ATOM_COUNT>
0

> <PUBCHEM_COMPONENT_COUNT>
1

> <PUBCHEM_CACTVS_TAUTO_COUNT>
4

> <PUBCHEM_CONFORMER_ID>
0000834D00000001

> <PUBCHEM_MMFF94_ENERGY>
67.1431

> <PUBCHEM_FEATURE_SELFOVERLAP>
60.951

> <PUBCHEM_SHAPE_FINGERPRINT>
10062212 137 18335421231574661425
10616163 171 18341051839437082311
10675989 125 17044287567819711200
10759866 29 17897171440604065876
11135609 12 18335713701630609938
12553582 1 18270126854356182069
12596599 1 17273707648634829575
12633257 1 18410865356207832051
13009979 54 18411146813952010284
13140716 1 18342738511533136737
13224815 77 18412546543587762453
14081887 123 18200017435602546008
14178342 30 18199756834220017952
17349148 13 18260268534253952626
17492 89 18409450305928018514
20291156 8 18341053016426919849
221490 88 18411699902618114120
23402539 116 18041843883802133418
23557571 272 18130224865524727883
23558518 356 18259991495704548217
23559900 14 18340473530480832737
23598288 3 18272090483207273813
392239 28 17988346119023815112
463206 1 18124585634112152119
5309563 4 18051696839448402183
9709674 26 18271525273842468285

> <PUBCHEM_SHAPE_MULTIPOLES>
474.05
8.88
3.54
1.43
0.79
0.16
0.21
4.89
-0.51
-2.02
0
0.17
-0.18
-0.76

> <PUBCHEM_SHAPE_SELFOVERLAP>
1001.506

> <PUBCHEM_SHAPE_VOLUME>
267.9

> <PUBCHEM_COORDINATE_TYPE>
2
5
10

$$$$
