441203
  -OEChem-08202604172D

 11  8  0     0  0  0  0  0  0999 V2000
    3.1455   -0.1614    0.0000 Pt  0  2  0  0  0  0  0  0  0  0  0  0
    3.8526    0.5458    0.0000 Cl  0  0  0  0  0  0  0  0  0  0  0  0
    3.8526   -0.8685    0.0000 Cl  0  0  0  0  0  0  0  0  0  0  0  0
    2.4384   -0.8685    0.0000 N   0  0  0  0  0  0  0  0  0  0  0  0
    2.7229    0.7450    0.0000 N   0  0  0  0  0  0  0  0  0  0  0  0
    2.0000   -1.3069    0.0000 H   0  0  0  0  0  0  0  0  0  0  0  0
    2.8768   -1.3069    0.0000 H   0  0  0  0  0  0  0  0  0  0  0  0
    2.0000   -0.4301    0.0000 H   0  0  0  0  0  0  0  0  0  0  0  0
    2.4609    1.3069    0.0000 H   0  0  0  0  0  0  0  0  0  0  0  0
    2.1610    0.4829    0.0000 H   0  0  0  0  0  0  0  0  0  0  0  0
    3.2848    1.0070    0.0000 H   0  0  0  0  0  0  0  0  0  0  0  0
  1  2  1  0  0  0  0
  1  3  1  0  0  0  0
  4  6  1  0  0  0  0
  4  7  1  0  0  0  0
  4  8  1  0  0  0  0
  5  9  1  0  0  0  0
  5 10  1  0  0  0  0
  5 11  1  0  0  0  0
M  CHG  1   1   2
M  END
> <PUBCHEM_COMPOUND_CID>
441203

> <PUBCHEM_COMPOUND_CANONICALIZED>
1

> <PUBCHEM_CACTVS_COMPLEXITY>
7.6

> <PUBCHEM_CACTVS_HBOND_ACCEPTOR>
2

> <PUBCHEM_CACTVS_HBOND_DONOR>
2

> <PUBCHEM_CACTVS_ROTATABLE_BOND>
0

> <PUBCHEM_CACTVS_SUBSKEYS>
AAADcYADAAAGAAAAAAAABAAAAAAAAAAAAAAAAAAAAAAAAAAAAAAAAAAQAAAAAAAAAAAAAAAAAAAAAAAAAAAAAAAAAAAAAAAAAAAAAAAAAAAAAAAAAAAAAAAAAAAAAAAAAAAAAAAAAAAAAAAAAAAAAAAAAA==

> <PUBCHEM_IUPAC_OPENEYE_NAME>
ammonia;dichloroplatinum(2+)

> <PUBCHEM_IUPAC_CAS_NAME>
ammonia;dichloroplatinum(2+)

> <PUBCHEM_IUPAC_NAME_MARKUP>
azane;dichloroplatinum(2+)

> <PUBCHEM_IUPAC_NAME>
azane;dichloroplatinum(2+)

> <PUBCHEM_IUPAC_SYSTEMATIC_NAME>
azane;bis(chloranyl)platinum(2+)

> <PUBCHEM_IUPAC_TRADITIONAL_NAME>
ammonia;dichloroplatinum(2+)

> <PUBCHEM_IUPAC_INCHI>
InChI=1S/2ClH.2H3N.Pt/h2*1H;2*1H3;/q;;;;+4/p-2

> <PUBCHEM_IUPAC_INCHIKEY>
BSJGASKRWFKGMV-UHFFFAOYSA-L

> <PUBCHEM_EXACT_MASS>
298.955598

> <PUBCHEM_MOLECULAR_FORMULA>
Cl2H6N2Pt+2

> <PUBCHEM_MOLECULAR_WEIGHT>
300.05

> <PUBCHEM_SMILES>
N.N.Cl[Pt+2]Cl

> <PUBCHEM_CONNECTIVITY_SMILES>
N.N.Cl[Pt+2]Cl

> <PUBCHEM_CACTVS_TPSA>
2

> <PUBCHEM_MONOISOTOPIC_WEIGHT>
298.955598

> <PUBCHEM_TOTAL_CHARGE>
2

> <PUBCHEM_HEAVY_ATOM_COUNT>
5

> <PUBCHEM_ATOM_DEF_STEREO_COUNT>
0

> <PUBCHEM_ATOM_UDEF_STEREO_COUNT>
0

> <PUBCHEM_BOND_DEF_STEREO_COUNT>
0

> <PUBCHEM_BOND_UDEF_STEREO_COUNT>
0

> <PUBCHEM_ISOTOPIC_ATOM_COUNT>
0

> <PUBCHEM_COMPONENT_COUNT>
3

> <PUBCHEM_CACTVS_TAUTO_COUNT>
-1

> <PUBCHEM_NONSTANDARDBOND>
1  4  6
1  5  6

> <PUBCHEM_COORDINATE_TYPE>
1
5
255

$$$$
