166596686
  -OEChem-08202606062D

181186  0     1  0  0  0  0  0999 V2000
    3.9063    0.0000    0.0000 Co  0  2  0  0  0  0  0  0  0  0  0  0
   14.7688   11.1609    0.0000 P   0  0  3  0  0  0  0  0  0  0  0  0
    8.6188    2.4748    0.0000 O   0  0  0  0  0  0  0  0  0  0  0  0
   11.2733    6.4193    0.0000 O   0  0  0  0  0  0  0  0  0  0  0  0
   12.3172    7.2892    0.0000 O   0  0  0  0  0  0  0  0  0  0  0  0
    4.4063    0.8660    0.0000 O   0  5  0  0  0  0  0  0  0  0  0  0
    2.4747    4.0827    0.0000 O   0  0  0  0  0  0  0  0  0  0  0  0
    0.0000    7.2485    0.0000 O   0  5  0  0  0  0  0  0  0  0  0  0
    8.5749   11.6686    0.0000 O   0  5  0  0  0  0  0  0  0  0  0  0
   14.4031   10.2301    0.0000 O   0  0  0  0  0  0  0  0  0  0  0  0
   15.1345   12.0916    0.0000 O   0  0  0  0  0  0  0  0  0  0  0  0
   15.6995   10.7952    0.0000 O   0  0  0  0  0  0  0  0  0  0  0  0
   13.8380   11.5265    0.0000 O   0  0  0  0  0  0  0  0  0  0  0  0
   17.5707   12.9635    0.0000 O   0  0  0  0  0  0  0  0  0  0  0  0
   16.6607   10.5412    0.0000 O   0  0  0  0  0  0  0  0  0  0  0  0
   16.6885   14.8566    0.0000 O   0  0  0  0  0  0  0  0  0  0  0  0
    6.3935    4.9908    0.0000 N   0  0  0  0  0  0  0  0  0  0  0  0
    7.8549    6.3235    0.0000 N   0  0  0  0  0  0  0  0  0  0  0  0
    4.9303    6.3235    0.0000 N   0  0  0  0  0  0  0  0  0  0  0  0
    6.3609    7.6563    0.0000 N   0  0  0  0  0  0  0  0  0  0  0  0
    7.7621    0.9695    0.0000 N   0  0  0  0  0  0  0  0  0  0  0  0
   11.7499    4.7541    0.0000 N   0  0  0  0  0  0  0  0  0  0  0  0
   12.0596    9.0020    0.0000 N   0  0  0  0  0  0  0  0  0  0  0  0
    2.9063    1.7321    0.0000 N   0  0  0  0  0  0  0  0  0  0  0  0
    0.9560    4.9154    0.0000 N   0  0  0  0  0  0  0  0  0  0  0  0
    1.0487    8.6270    0.0000 N   0  0  0  0  0  0  0  0  0  0  0  0
    7.1585   12.6656    0.0000 N   0  0  0  0  0  0  0  0  0  0  0  0
   18.6068   11.5137    0.0000 N   0  3  0  0  0  0  0  0  0  0  0  0
   19.7339   10.3647    0.0000 N   0  0  0  0  0  0  0  0  0  0  0  0
   11.0006   17.4107    0.0000 N   0  0  0  0  0  0  0  0  0  0  0  0
    7.1738    4.4058    0.0000 C   0  0  2  0  0  0  0  0  0  0  0  0
    6.8806    3.4641    0.0000 C   0  0  2  0  0  0  0  0  0  0  0  0
    8.4398    5.6083    0.0000 C   0  0  1  0  0  0  0  0  0  0  0  0
    9.3505    5.8690    0.0000 C   0  0  1  0  0  0  0  0  0  0  0  0
    5.9063    3.4641    0.0000 C   0  0  1  0  0  0  0  0  0  0  0  0
    9.3505    6.8432    0.0000 C   0  0  2  0  0  0  0  0  0  0  0  0
    5.6130    4.3732    0.0000 C   0  0  0  0  0  0  0  0  0  0  0  0
    6.8868    2.4641    0.0000 C   0  0  0  0  0  0  0  0  0  0  0  0
    8.4072    7.1039    0.0000 C   0  0  0  0  0  0  0  0  0  0  0  0
    8.0229    3.8776    0.0000 C   0  0  0  0  0  0  0  0  0  0  0  0
    7.8336    3.1610    0.0000 C   0  0  0  0  0  0  0  0  0  0  0  0
    5.4063    2.5981    0.0000 C   0  0  0  0  0  0  0  0  0  0  0  0
   10.0695    5.1740    0.0000 C   0  0  0  0  0  0  0  0  0  0  0  0
   10.3394    6.9919    0.0000 C   0  0  0  0  0  0  0  0  0  0  0  0
    9.5147    7.8296    0.0000 C   0  0  0  0  0  0  0  0  0  0  0  0
    4.6713    4.6665    0.0000 C   0  0  0  0  0  0  0  0  0  0  0  0
    8.1156    8.0130    0.0000 C   0  0  0  0  0  0  0  0  0  0  0  0
    3.4363    5.8364    0.0000 C   0  0  2  0  0  0  0  0  0  0  0  0
    4.3780    5.5756    0.0000 C   0  0  0  0  0  0  0  0  0  0  0  0
    4.4063    2.5981    0.0000 C   0  0  0  0  0  0  0  0  0  0  0  0
    7.7559    1.9695    0.0000 C   0  0  0  0  0  0  0  0  0  0  0  0
   10.7051    7.9226    0.0000 C   0  0  0  0  0  0  0  0  0  0  0  0
    3.4363    6.8106    0.0000 C   0  0  1  0  0  0  0  0  0  0  0  0
    7.1738    8.3063    0.0000 C   0  0  0  0  0  0  0  0  0  0  0  0
    6.8480    9.2155    0.0000 C   0  0  2  0  0  0  0  0  0  0  0  0
   11.0309    5.4491    0.0000 C   0  0  0  0  0  0  0  0  0  0  0  0
    5.8737    9.2155    0.0000 C   0  0  0  0  0  0  0  0  0  0  0  0
    4.3780    7.0713    0.0000 C   0  0  0  0  0  0  0  0  0  0  0  0
    4.0005    3.9248    0.0000 C   0  0  0  0  0  0  0  0  0  0  0  0
    8.8504    8.6912    0.0000 C   0  0  0  0  0  0  0  0  0  0  0  0
    5.5804    8.2737    0.0000 C   0  0  0  0  0  0  0  0  0  0  0  0
    2.4366    5.8143    0.0000 C   0  0  0  0  0  0  0  0  0  0  0  0
    3.1483    4.8787    0.0000 C   0  0  0  0  0  0  0  0  0  0  0  0
    2.6404    7.4161    0.0000 C   0  0  0  0  0  0  0  0  0  0  0  0
    4.6388    8.0130    0.0000 C   0  0  0  0  0  0  0  0  0  0  0  0
    7.4236   10.0332    0.0000 C   0  0  0  0  0  0  0  0  0  0  0  0
   11.6940    8.0713    0.0000 C   0  0  0  0  0  0  0  0  0  0  0  0
    3.9063    1.7321    0.0000 C   0  0  0  0  0  0  0  0  0  0  0  0
    5.8676   10.2154    0.0000 C   0  0  0  0  0  0  0  0  0  0  0  0
    4.9208    9.5187    0.0000 C   0  0  0  0  0  0  0  0  0  0  0  0
    1.7182    7.0296    0.0000 C   0  0  0  0  0  0  0  0  0  0  0  0
    1.9558    4.9375    0.0000 C   0  0  0  0  0  0  0  0  0  0  0  0
    7.0033   10.9405    0.0000 C   0  0  0  0  0  0  0  0  0  0  0  0
   13.0485    9.1507    0.0000 C   0  0  0  0  0  0  0  0  0  0  0  0
    0.9223    7.6350    0.0000 C   0  0  0  0  0  0  0  0  0  0  0  0
    7.5789   11.7583    0.0000 C   0  0  0  0  0  0  0  0  0  0  0  0
   13.4142   10.0814    0.0000 C   0  0  1  0  0  0  0  0  0  0  0  0
   12.7910   10.8635    0.0000 C   0  0  0  0  0  0  0  0  0  0  0  0
   16.1233   12.2403    0.0000 C   0  0  1  0  0  0  0  0  0  0  0  0
   16.8249   11.5276    0.0000 C   0  0  2  0  0  0  0  0  0  0  0  0
   16.5843   13.1277    0.0000 C   0  0  1  0  0  0  0  0  0  0  0  0
   17.7194   11.9746    0.0000 C   0  0  2  0  0  0  0  0  0  0  0  0
   16.1373   14.0222    0.0000 C   0  0  0  0  0  0  0  0  0  0  0  0
   19.4957   11.9588    0.0000 C   0  0  0  0  0  0  0  0  0  0  0  0
   18.7538   10.5305    0.0000 C   0  0  0  0  0  0  0  0  0  0  0  0
   20.1960   11.2449    0.0000 C   0  0  0  0  0  0  0  0  0  0  0  0
   19.7638   12.9222    0.0000 C   0  0  0  0  0  0  0  0  0  0  0  0
   21.1644   11.4945    0.0000 C   0  0  0  0  0  0  0  0  0  0  0  0
   20.7321   13.1717    0.0000 C   0  0  0  0  0  0  0  0  0  0  0  0
   21.4324   12.4579    0.0000 C   0  0  0  0  0  0  0  0  0  0  0  0
   21.0002   14.1351    0.0000 C   0  0  0  0  0  0  0  0  0  0  0  0
   22.4008   12.7074    0.0000 C   0  0  0  0  0  0  0  0  0  0  0  0
   12.0006   17.4107    0.0000 C   0  4  0  0  0  0  0  0  0  0  0  0
    8.8616    4.8703    0.0000 H   0  0  0  0  0  0  0  0  0  0  0  0
    9.9213    6.1111    0.0000 H   0  0  0  0  0  0  0  0  0  0  0  0
    5.2898    3.5295    0.0000 H   0  0  0  0  0  0  0  0  0  0  0  0
    6.2756    2.5680    0.0000 H   0  0  0  0  0  0  0  0  0  0  0  0
    6.6784    1.8802    0.0000 H   0  0  0  0  0  0  0  0  0  0  0  0
    7.6955    3.3512    0.0000 H   0  0  0  0  0  0  0  0  0  0  0  0
    8.5494    3.5501    0.0000 H   0  0  0  0  0  0  0  0  0  0  0  0
    8.3504    4.4041    0.0000 H   0  0  0  0  0  0  0  0  0  0  0  0
    7.6456    2.5701    0.0000 H   0  0  0  0  0  0  0  0  0  0  0  0
    8.4244    2.9730    0.0000 H   0  0  0  0  0  0  0  0  0  0  0  0
    8.0215    3.7518    0.0000 H   0  0  0  0  0  0  0  0  0  0  0  0
    5.2986    1.9875    0.0000 H   0  0  0  0  0  0  0  0  0  0  0  0
    5.9889    2.3860    0.0000 H   0  0  0  0  0  0  0  0  0  0  0  0
    9.5677    4.8098    0.0000 H   0  0  0  0  0  0  0  0  0  0  0  0
   10.3410    4.6166    0.0000 H   0  0  0  0  0  0  0  0  0  0  0  0
   10.3237    6.3721    0.0000 H   0  0  0  0  0  0  0  0  0  0  0  0
   10.9470    6.8688    0.0000 H   0  0  0  0  0  0  0  0  0  0  0  0
   10.1263    7.7278    0.0000 H   0  0  0  0  0  0  0  0  0  0  0  0
    9.6165    8.4412    0.0000 H   0  0  0  0  0  0  0  0  0  0  0  0
    8.9031    7.9314    0.0000 H   0  0  0  0  0  0  0  0  0  0  0  0
    4.5140    3.2087    0.0000 H   0  0  0  0  0  0  0  0  0  0  0  0
    3.8237    2.8101    0.0000 H   0  0  0  0  0  0  0  0  0  0  0  0
   10.7208    8.5424    0.0000 H   0  0  0  0  0  0  0  0  0  0  0  0
   10.0974    8.0457    0.0000 H   0  0  0  0  0  0  0  0  0  0  0  0
    2.8808    6.5352    0.0000 H   0  0  0  0  0  0  0  0  0  0  0  0
    6.5624    9.7658    0.0000 H   0  0  0  0  0  0  0  0  0  0  0  0
    3.5407    4.3407    0.0000 H   0  0  0  0  0  0  0  0  0  0  0  0
    3.5847    3.4649    0.0000 H   0  0  0  0  0  0  0  0  0  0  0  0
    4.4604    3.5090    0.0000 H   0  0  0  0  0  0  0  0  0  0  0  0
    5.5464    6.3931    0.0000 H   0  0  0  0  0  0  0  0  0  0  0  0
    9.2709    8.2356    0.0000 H   0  0  0  0  0  0  0  0  0  0  0  0
    9.3061    9.1117    0.0000 H   0  0  0  0  0  0  0  0  0  0  0  0
    8.4300    9.1468    0.0000 H   0  0  0  0  0  0  0  0  0  0  0  0
    2.5307    6.4271    0.0000 H   0  0  0  0  0  0  0  0  0  0  0  0
    1.8494    6.0135    0.0000 H   0  0  0  0  0  0  0  0  0  0  0  0
    2.5546    5.0573    0.0000 H   0  0  0  0  0  0  0  0  0  0  0  0
    2.9698    4.2850    0.0000 H   0  0  0  0  0  0  0  0  0  0  0  0
    3.7421    4.7002    0.0000 H   0  0  0  0  0  0  0  0  0  0  0  0
    3.0958    7.8368    0.0000 H   0  0  0  0  0  0  0  0  0  0  0  0
    2.3052    7.9376    0.0000 H   0  0  0  0  0  0  0  0  0  0  0  0
    4.2040    8.4550    0.0000 H   0  0  0  0  0  0  0  0  0  0  0  0
    7.8609    9.5937    0.0000 H   0  0  0  0  0  0  0  0  0  0  0  0
    7.9324   10.3875    0.0000 H   0  0  0  0  0  0  0  0  0  0  0  0
    8.3009    0.6628    0.0000 H   0  0  0  0  0  0  0  0  0  0  0  0
    7.2271    0.6562    0.0000 H   0  0  0  0  0  0  0  0  0  0  0  0
    6.4876   10.2192    0.0000 H   0  0  0  0  0  0  0  0  0  0  0  0
    5.8638   10.8354    0.0000 H   0  0  0  0  0  0  0  0  0  0  0  0
    5.2476   10.2117    0.0000 H   0  0  0  0  0  0  0  0  0  0  0  0
    5.1088   10.1095    0.0000 H   0  0  0  0  0  0  0  0  0  0  0  0
    4.3300    9.7067    0.0000 H   0  0  0  0  0  0  0  0  0  0  0  0
    4.7328    8.9279    0.0000 H   0  0  0  0  0  0  0  0  0  0  0  0
   12.3460    4.9247    0.0000 H   0  0  0  0  0  0  0  0  0  0  0  0
   11.5996    4.1526    0.0000 H   0  0  0  0  0  0  0  0  0  0  0  0
    1.2628    6.6088    0.0000 H   0  0  0  0  0  0  0  0  0  0  0  0
    2.0534    6.5080    0.0000 H   0  0  0  0  0  0  0  0  0  0  0  0
    6.5660   11.3800    0.0000 H   0  0  0  0  0  0  0  0  0  0  0  0
    6.4945   10.5862    0.0000 H   0  0  0  0  0  0  0  0  0  0  0  0
   11.6733    9.4869    0.0000 H   0  0  0  0  0  0  0  0  0  0  0  0
    2.5963    1.1951    0.0000 H   0  0  0  0  0  0  0  0  0  0  0  0
   13.0328    8.5309    0.0000 H   0  0  0  0  0  0  0  0  0  0  0  0
   13.6562    9.0276    0.0000 H   0  0  0  0  0  0  0  0  0  0  0  0
    0.6579    4.3718    0.0000 H   0  0  0  0  0  0  0  0  0  0  0  0
    0.6342    5.4454    0.0000 H   0  0  0  0  0  0  0  0  0  0  0  0
   13.6409   10.6585    0.0000 H   0  0  0  0  0  0  0  0  0  0  0  0
    0.5553    9.0024    0.0000 H   0  0  0  0  0  0  0  0  0  0  0  0
    7.5154   13.1726    0.0000 H   0  0  0  0  0  0  0  0  0  0  0  0
   13.2759   11.2499    0.0000 H   0  0  0  0  0  0  0  0  0  0  0  0
   12.4046   11.3484    0.0000 H   0  0  0  0  0  0  0  0  0  0  0  0
   12.3061   10.4771    0.0000 H   0  0  0  0  0  0  0  0  0  0  0  0
   15.9271   11.6521    0.0000 H   0  0  0  0  0  0  0  0  0  0  0  0
   16.2337   11.3407    0.0000 H   0  0  0  0  0  0  0  0  0  0  0  0
   16.9527   13.6264    0.0000 H   0  0  0  0  0  0  0  0  0  0  0  0
   15.7917   10.1821    0.0000 H   0  0  0  0  0  0  0  0  0  0  0  0
   18.2239   12.3351    0.0000 H   0  0  0  0  0  0  0  0  0  0  0  0
   15.6872   14.4486    0.0000 H   0  0  0  0  0  0  0  0  0  0  0  0
   15.6393   13.6530    0.0000 H   0  0  0  0  0  0  0  0  0  0  0  0
   17.1395   10.1473    0.0000 H   0  0  0  0  0  0  0  0  0  0  0  0
   18.3112   10.0963    0.0000 H   0  0  0  0  0  0  0  0  0  0  0  0
   20.0092    9.8092    0.0000 H   0  0  0  0  0  0  0  0  0  0  0  0
   16.4114   15.4112    0.0000 H   0  0  0  0  0  0  0  0  0  0  0  0
   19.3296   13.3648    0.0000 H   0  0  0  0  0  0  0  0  0  0  0  0
   21.5985   11.0519    0.0000 H   0  0  0  0  0  0  0  0  0  0  0  0
   21.5975   13.9689    0.0000 H   0  0  0  0  0  0  0  0  0  0  0  0
   21.1664   14.7324    0.0000 H   0  0  0  0  0  0  0  0  0  0  0  0
   20.4029   14.3013    0.0000 H   0  0  0  0  0  0  0  0  0  0  0  0
   22.5555   12.1070    0.0000 H   0  0  0  0  0  0  0  0  0  0  0  0
   23.0012   12.8622    0.0000 H   0  0  0  0  0  0  0  0  0  0  0  0
   22.2461   13.3078    0.0000 H   0  0  0  0  0  0  0  0  0  0  0  0
  2 10  1  0  0  0  0
  2 11  1  0  0  0  0
  2 12  1  0  0  0  0
  2 13  2  0  0  0  0
  3 51  2  0  0  0  0
  4 56  2  0  0  0  0
  5 67  2  0  0  0  0
  6 68  1  0  0  0  0
  7 72  2  0  0  0  0
  8 75  1  0  0  0  0
  9 76  1  0  0  0  0
 77 10  1  1  0  0  0
 79 11  1  6  0  0  0
 12166  1  0  0  0  0
 14 81  1  0  0  0  0
 14 82  1  0  0  0  0
 80 15  1  6  0  0  0
 15170  1  0  0  0  0
 16 83  1  0  0  0  0
 16173  1  0  0  0  0
 17 31  1  0  0  0  0
 17 37  2  0  0  0  0
 18 33  1  0  0  0  0
 18 39  2  0  0  0  0
 19 49  1  0  0  0  0
 19 58  1  0  0  0  0
 19123  1  0  0  0  0
 20 54  1  0  0  0  0
 20 61  2  0  0  0  0
 21 51  1  0  0  0  0
 21137  1  0  0  0  0
 21138  1  0  0  0  0
 22 56  1  0  0  0  0
 22145  1  0  0  0  0
 22146  1  0  0  0  0
 23 67  1  0  0  0  0
 23 74  1  0  0  0  0
 23151  1  0  0  0  0
 24 68  2  0  0  0  0
 24152  1  0  0  0  0
 25 72  1  0  0  0  0
 25155  1  0  0  0  0
 25156  1  0  0  0  0
 26 75  2  0  0  0  0
 26158  1  0  0  0  0
 27 76  2  0  0  0  0
 27159  1  0  0  0  0
 82 28  1  6  0  0  0
 28 84  1  0  0  0  0
 28 85  2  0  0  0  0
 29 85  1  0  0  0  0
 29 86  1  0  0  0  0
 29172  1  0  0  0  0
 30 93  3  0  0  0  0
 31 32  1  0  0  0  0
 31 33  1  0  0  0  0
 31 40  1  6  0  0  0
 32 35  1  0  0  0  0
 32 38  1  0  0  0  0
 32 41  1  6  0  0  0
 33 34  1  0  0  0  0
 33 94  1  1  0  0  0
 34 36  1  0  0  0  0
 34 43  1  1  0  0  0
 34 95  1  0  0  0  0
 35 37  1  0  0  0  0
 35 42  1  6  0  0  0
 35 96  1  0  0  0  0
 36 39  1  0  0  0  0
 36 44  1  0  0  0  0
 36 45  1  1  0  0  0
 37 46  1  0  0  0  0
 38 51  1  0  0  0  0
 38 97  1  0  0  0  0
 38 98  1  0  0  0  0
 39 47  1  0  0  0  0
 40 99  1  0  0  0  0
 40100  1  0  0  0  0
 40101  1  0  0  0  0
 41102  1  0  0  0  0
 41103  1  0  0  0  0
 41104  1  0  0  0  0
 42 50  1  0  0  0  0
 42105  1  0  0  0  0
 42106  1  0  0  0  0
 43 56  1  0  0  0  0
 43107  1  0  0  0  0
 43108  1  0  0  0  0
 44 52  1  0  0  0  0
 44109  1  0  0  0  0
 44110  1  0  0  0  0
 45111  1  0  0  0  0
 45112  1  0  0  0  0
 45113  1  0  0  0  0
 46 49  2  0  0  0  0
 46 59  1  0  0  0  0
 47 54  2  0  0  0  0
 47 60  1  0  0  0  0
 48 49  1  0  0  0  0
 48 53  1  0  0  0  0
 48 62  1  0  0  0  0
 48 63  1  6  0  0  0
 50 68  1  0  0  0  0
 50114  1  0  0  0  0
 50115  1  0  0  0  0
 52 67  1  0  0  0  0
 52116  1  0  0  0  0
 52117  1  0  0  0  0
 53 58  1  0  0  0  0
 53 64  1  6  0  0  0
 53118  1  0  0  0  0
 54 55  1  0  0  0  0
 55 57  1  0  0  0  0
 55 66  1  6  0  0  0
 55119  1  0  0  0  0
 57 61  1  0  0  0  0
 57 69  1  0  0  0  0
 57 70  1  0  0  0  0
 58 65  2  0  0  0  0
 59120  1  0  0  0  0
 59121  1  0  0  0  0
 59122  1  0  0  0  0
 60124  1  0  0  0  0
 60125  1  0  0  0  0
 60126  1  0  0  0  0
 61 65  1  0  0  0  0
 62 72  1  0  0  0  0
 62127  1  0  0  0  0
 62128  1  0  0  0  0
 63129  1  0  0  0  0
 63130  1  0  0  0  0
 63131  1  0  0  0  0
 64 71  1  0  0  0  0
 64132  1  0  0  0  0
 64133  1  0  0  0  0
 65134  1  0  0  0  0
 66 73  1  0  0  0  0
 66135  1  0  0  0  0
 66136  1  0  0  0  0
 69139  1  0  0  0  0
 69140  1  0  0  0  0
 69141  1  0  0  0  0
 70142  1  0  0  0  0
 70143  1  0  0  0  0
 70144  1  0  0  0  0
 71 75  1  0  0  0  0
 71147  1  0  0  0  0
 71148  1  0  0  0  0
 73 76  1  0  0  0  0
 73149  1  0  0  0  0
 73150  1  0  0  0  0
 74 77  1  0  0  0  0
 74153  1  0  0  0  0
 74154  1  0  0  0  0
 77 78  1  0  0  0  0
 77157  1  0  0  0  0
 78160  1  0  0  0  0
 78161  1  0  0  0  0
 78162  1  0  0  0  0
 79 80  1  0  0  0  0
 79 81  1  0  0  0  0
 79163  1  0  0  0  0
 80 82  1  0  0  0  0
 80164  1  0  0  0  0
 81 83  1  1  0  0  0
 81165  1  0  0  0  0
 82167  1  0  0  0  0
 83168  1  0  0  0  0
 83169  1  0  0  0  0
 84 86  2  0  0  0  0
 84 87  1  0  0  0  0
 85171  1  0  0  0  0
 86 88  1  0  0  0  0
 87 89  2  0  0  0  0
 87174  1  0  0  0  0
 88 90  2  0  0  0  0
 88175  1  0  0  0  0
 89 90  1  0  0  0  0
 89 91  1  0  0  0  0
 90 92  1  0  0  0  0
 91176  1  0  0  0  0
 91177  1  0  0  0  0
 91178  1  0  0  0  0
 92179  1  0  0  0  0
 92180  1  0  0  0  0
 92181  1  0  0  0  0
M  CHG  5   1   2   6  -1   8  -1   9  -1  28   1
M  RAD  1  93   2
M  END
> <PUBCHEM_COMPOUND_CID>
166596686

> <PUBCHEM_COMPOUND_CANONICALIZED>
1

> <PUBCHEM_CACTVS_COMPLEXITY>
3160

> <PUBCHEM_CACTVS_HBOND_ACCEPTOR>
22

> <PUBCHEM_CACTVS_HBOND_DONOR>
12

> <PUBCHEM_CACTVS_ROTATABLE_BOND>
26

> <PUBCHEM_CACTVS_SUBSKEYS>
AAADcfB//AIAAAAQAAAAAAAAAAAAAWLEiBAwAAAAAAAAAFgB8AAAHgAQCCAAD7zhngY30LfNlxC4QyVzdICCgC2xEqAB2aE4dJiLeLLAmZGeYAhvlgLbyCf8+fKfiAAAQAAQACAQAACAACAAQAAAAAAAAA==

> <PUBCHEM_IUPAC_INCHI>
InChI=1S/C62H90N13O14P.CN.Co/c1-29-20-39-40(21-30(29)2)75(28-70-39)57-52(84)53(41(27-76)87-57)89-90(85,86)88-31(3)26-69-49(83)18-19-59(8)37(22-46(66)80)56-62(11)61(10,25-48(68)82)36(14-17-45(65)79)51(74-62)33(5)55-60(9,24-47(67)81)34(12-15-43(63)77)38(71-55)23-42-58(6,7)35(13-16-44(64)78)50(72-42)32(4)54(59)73-56;1-2;/h20-21,23,28,31,34-37,41,52-53,56-57,76,84H,12-19,22,24-27H2,1-11H3,(H15,63,64,65,66,67,68,69,71,72,73,74,77,78,79,80,81,82,83,85,86);;/q;;+2/p-2/t31-,34-,35-,36-,37+,41-,52-,53-,56-,57+,59-,60+,61+,62+;;/m1../s1

> <PUBCHEM_IUPAC_INCHIKEY>
RMRCNWBMXRMIRW-WZHZPDAFSA-L

> <PUBCHEM_EXACT_MASS>
1354.567399

> <PUBCHEM_MOLECULAR_FORMULA>
C63H88CoN14O14P

> <PUBCHEM_MOLECULAR_WEIGHT>
1355.4

> <PUBCHEM_SMILES>
CC1=CC2=C(C=C1C)[N+](=CN2)[C@@H]3[C@@H]([C@@H]([C@H](O3)CO)OP(=O)(O)O[C@H](C)CNC(=O)CC[C@@]4([C@H]([C@@H]5[C@]6([C@@]([C@@H](C(=N6)/C(=C\7/[C@@]([C@@H](/C(=C/C8=N/C(=C(\C4=N5)/C)/[C@H](C8(C)C)CCC(=N)[O-])/N7)CCC(=N)[O-])(C)CC(=O)N)/C)CCC(=N)[O-])(C)CC(=O)N)C)CC(=O)N)C)O.[C]#N.[Co+2]

> <PUBCHEM_CONNECTIVITY_SMILES>
CC1=CC2=C(C=C1C)[N+](=CN2)C3C(C(C(O3)CO)OP(=O)(O)OC(C)CNC(=O)CCC4(C(C5C6(C(C(C(=N6)C(=C7C(C(C(=CC8=NC(=C(C4=N5)C)C(C8(C)C)CCC(=N)[O-])N7)CCC(=N)[O-])(C)CC(=O)N)C)CCC(=N)[O-])(C)CC(=O)N)C)CC(=O)N)C)O.[C]#N.[Co+2]

> <PUBCHEM_CACTVS_TPSA>
497

> <PUBCHEM_MONOISOTOPIC_WEIGHT>
1354.567399

> <PUBCHEM_TOTAL_CHARGE>
0

> <PUBCHEM_HEAVY_ATOM_COUNT>
93

> <PUBCHEM_ATOM_DEF_STEREO_COUNT>
14

> <PUBCHEM_ATOM_UDEF_STEREO_COUNT>
0

> <PUBCHEM_BOND_DEF_STEREO_COUNT>
3

> <PUBCHEM_BOND_UDEF_STEREO_COUNT>
0

> <PUBCHEM_ISOTOPIC_ATOM_COUNT>
0

> <PUBCHEM_COMPONENT_COUNT>
3

> <PUBCHEM_CACTVS_TAUTO_COUNT>
-1

> <PUBCHEM_COORDINATE_TYPE>
1
5
255

> <PUBCHEM_BONDANNOTATIONS>
77  10  5
79  11  6
80  15  6
82  28  6
28  84  8
28  85  8
29  85  8
29  86  8
31  40  6
32  41  6
33  94  5
34  43  5
35  42  6
36  45  5
48  63  6
53  64  6
55  66  6
81  83  5
84  86  8
84  87  8
86  88  8
87  89  8
88  90  8
89  90  8

$$$$
