3033
  -OEChem-08202606063D

 30 31  0     0  0  0  0  0  0999 V2000
    1.9541    1.1500   -2.5078 Cl  0  0  0  0  0  0  0  0  0  0  0  0
    1.1377   -1.6392    2.1136 Cl  0  0  0  0  0  0  0  0  0  0  0  0
   -3.2620   -2.9284   -1.0647 O   0  0  0  0  0  0  0  0  0  0  0  0
   -2.7906   -1.9108    0.9092 O   0  0  0  0  0  0  0  0  0  0  0  0
    0.2679   -0.2051   -0.3990 N   0  0  0  0  0  0  0  0  0  0  0  0
   -2.0640    0.5139   -0.3769 C   0  0  0  0  0  0  0  0  0  0  0  0
   -0.7313    0.7178   -0.0192 C   0  0  0  0  0  0  0  0  0  0  0  0
   -2.4761   -0.6830   -1.1703 C   0  0  0  0  0  0  0  0  0  0  0  0
    1.6571   -0.2482   -0.1795 C   0  0  0  0  0  0  0  0  0  0  0  0
   -3.0382    1.4350    0.0081 C   0  0  0  0  0  0  0  0  0  0  0  0
   -0.3728    1.8429    0.7234 C   0  0  0  0  0  0  0  0  0  0  0  0
   -2.6797    2.5600    0.7506 C   0  0  0  0  0  0  0  0  0  0  0  0
   -1.3470    2.7640    1.1083 C   0  0  0  0  0  0  0  0  0  0  0  0
    2.5353    0.3477   -1.0918 C   0  0  0  0  0  0  0  0  0  0  0  0
    2.1740   -0.8865    0.9534 C   0  0  0  0  0  0  0  0  0  0  0  0
   -2.8480   -1.8749   -0.3123 C   0  0  0  0  0  0  0  0  0  0  0  0
    3.9124    0.3058   -0.8739 C   0  0  0  0  0  0  0  0  0  0  0  0
    3.5511   -0.9285    1.1713 C   0  0  0  0  0  0  0  0  0  0  0  0
    4.4203   -0.3324    0.2576 C   0  0  0  0  0  0  0  0  0  0  0  0
   -1.7086   -0.9792   -1.8930 H   0  0  0  0  0  0  0  0  0  0  0  0
   -3.3614   -0.4266   -1.7676 H   0  0  0  0  0  0  0  0  0  0  0  0
   -0.0861   -1.1146   -0.6780 H   0  0  0  0  0  0  0  0  0  0  0  0
   -4.0812    1.2885   -0.2604 H   0  0  0  0  0  0  0  0  0  0  0  0
    0.6569    2.0278    1.0167 H   0  0  0  0  0  0  0  0  0  0  0  0
   -3.4382    3.2769    1.0511 H   0  0  0  0  0  0  0  0  0  0  0  0
   -1.0683    3.6399    1.6868 H   0  0  0  0  0  0  0  0  0  0  0  0
    4.6037    0.7654   -1.5758 H   0  0  0  0  0  0  0  0  0  0  0  0
    3.9635   -1.4215    2.0480 H   0  0  0  0  0  0  0  0  0  0  0  0
    5.4925   -0.3651    0.4274 H   0  0  0  0  0  0  0  0  0  0  0  0
   -3.5025   -3.7011   -0.5102 H   0  0  0  0  0  0  0  0  0  0  0  0
  1 14  1  0  0  0  0
  2 15  1  0  0  0  0
  3 16  1  0  0  0  0
  3 30  1  0  0  0  0
  4 16  2  0  0  0  0
  5  7  1  0  0  0  0
  5  9  1  0  0  0  0
  5 22  1  0  0  0  0
  6  7  1  0  0  0  0
  6  8  1  0  0  0  0
  6 10  2  0  0  0  0
  7 11  2  0  0  0  0
  8 16  1  0  0  0  0
  8 20  1  0  0  0  0
  8 21  1  0  0  0  0
  9 14  2  0  0  0  0
  9 15  1  0  0  0  0
 10 12  1  0  0  0  0
 10 23  1  0  0  0  0
 11 13  1  0  0  0  0
 11 24  1  0  0  0  0
 12 13  2  0  0  0  0
 12 25  1  0  0  0  0
 13 26  1  0  0  0  0
 14 17  1  0  0  0  0
 15 18  2  0  0  0  0
 17 19  2  0  0  0  0
 17 27  1  0  0  0  0
 18 19  1  0  0  0  0
 18 28  1  0  0  0  0
 19 29  1  0  0  0  0
M  END
> <PUBCHEM_COMPOUND_CID>
3033

> <PUBCHEM_CONFORMER_RMSD>
0.6

> <PUBCHEM_CONFORMER_DIVERSEORDER>
1
20
18
39
29
42
38
35
30
25
43
36
28
32
26
24
27
37
7
33
13
17
10
8
19
40
11
41
44
6
14
23
15
31
9
34
22
21
5
16
12
2
3
4

> <PUBCHEM_MMFF94_PARTIAL_CHARGES>
28
1 -0.18
10 -0.15
11 -0.15
12 -0.15
13 -0.15
14 0.18
15 0.18
16 0.66
17 -0.15
18 -0.15
19 -0.15
2 -0.18
22 0.4
23 0.15
24 0.15
25 0.15
26 0.15
27 0.15
28 0.15
29 0.15
3 -0.65
30 0.5
4 -0.57
5 -0.6
6 -0.14
7 0.1
8 0.2
9 0.1

> <PUBCHEM_EFFECTIVE_ROTOR_COUNT>
4

> <PUBCHEM_PHARMACOPHORE_FEATURES>
7
1 3 acceptor
1 4 acceptor
1 5 cation
1 5 donor
3 3 4 16 anion
6 6 7 10 11 12 13 rings
6 9 14 15 17 18 19 rings

> <PUBCHEM_HEAVY_ATOM_COUNT>
19

> <PUBCHEM_ATOM_DEF_STEREO_COUNT>
0

> <PUBCHEM_ATOM_UDEF_STEREO_COUNT>
0

> <PUBCHEM_BOND_DEF_STEREO_COUNT>
0

> <PUBCHEM_BOND_UDEF_STEREO_COUNT>
0

> <PUBCHEM_ISOTOPIC_ATOM_COUNT>
0

> <PUBCHEM_COMPONENT_COUNT>
1

> <PUBCHEM_CACTVS_TAUTO_COUNT>
1

> <PUBCHEM_CONFORMER_ID>
00000BD900000001

> <PUBCHEM_MMFF94_ENERGY>
65.6362

> <PUBCHEM_FEATURE_SELFOVERLAP>
35.578

> <PUBCHEM_SHAPE_FINGERPRINT>
10366900 7 17417797401529216848
114674 6 16891728701894680707
11578080 2 17899379143862767172
11582403 64 14494669035218381076
11640471 11 18117006493849514624
12236239 1 18261111820875384324
12363563 72 18057876030044738855
12553582 1 18198344146683738383
12596599 1 18187645743952899062
12788726 201 18411144640930400947
13032168 30 18187644747230063426
13140716 1 18201998871731372969
13538477 17 18337673022793085176
13583140 156 17273673422362519466
13764800 53 17917433060175811593
13965767 371 17255699494860869368
14115302 16 18335134267919818917
14787075 74 17904758126718027260
15279307 12 18190462662303703491
15375462 189 18262525908824534995
15669948 3 18340764849606273441
16752209 62 18340473509506590799
16945 1 18200600194014129929
19433438 48 18041271059455102488
200 152 18114177579116631646
20645476 183 18263084314824084125
20905425 154 17986106537902248752
21452121 199 18054216898186416085
21639500 275 16950855790154829052
22112679 90 18334869298344320804
23419403 2 17832944542404094220
23493267 7 18129946659028549016
23526113 38 16701741519202619718
23557571 272 17846787282197072988
23559900 14 17916308243344220974
23598288 3 18410017624115900295
23598291 2 18041844995629048350
238 59 16298948787494130118
4340502 62 17241909600819669849
6049 1 17275385408736404880
6992083 37 18042686087748961100
7615 1 18187651310045703636
77492 1 18260548883822617796
81228 2 17988365871383626009
9709674 26 17916588622471515406

> <PUBCHEM_SHAPE_MULTIPOLES>
378.03
7.01
2.75
1.77
3.48
0.4
0.34
1.22
0.47
-3.49
-0.51
0.79
-0.04
-2.24

> <PUBCHEM_SHAPE_SELFOVERLAP>
790.335

> <PUBCHEM_SHAPE_VOLUME>
214.7

> <PUBCHEM_COORDINATE_TYPE>
2
5
10

$$$$
