10462298
  -OEChem-08202607362D

 30 32  0     0  0  0  0  0  0999 V2000
    2.9176   -2.0469    0.0000 O   0  0  0  0  0  0  0  0  0  0  0  0
    7.3023    0.4845    0.0000 O   0  0  0  0  0  0  0  0  0  0  0  0
    2.9061    1.0223    0.0000 N   0  0  0  0  0  0  0  0  0  0  0  0
    4.6500    2.0292    0.0000 N   0  0  0  0  0  0  0  0  0  0  0  0
    3.8000   -0.5123    0.0000 C   0  0  0  0  0  0  0  0  0  0  0  0
    5.5321    0.4877    0.0000 C   0  0  0  0  0  0  0  0  0  0  0  0
    3.8000    0.4877    0.0000 C   0  0  0  0  0  0  0  0  0  0  0  0
    4.6660    0.9877    0.0000 C   0  0  0  0  0  0  0  0  0  0  0  0
    4.6660   -1.0123    0.0000 C   0  0  0  0  0  0  0  0  0  0  0  0
    5.5321   -0.5123    0.0000 C   0  0  0  0  0  0  0  0  0  0  0  0
    2.9061   -1.0470    0.0000 C   0  0  0  0  0  0  0  0  0  0  0  0
    6.4421    0.9945    0.0000 C   0  0  0  0  0  0  0  0  0  0  0  0
    2.0000   -0.5332    0.0000 C   0  0  0  0  0  0  0  0  0  0  0  0
    6.4501    2.0361    0.0000 C   0  0  0  0  0  0  0  0  0  0  0  0
    2.0000    0.5085    0.0000 C   0  0  0  0  0  0  0  0  0  0  0  0
    5.5480    2.5569    0.0000 C   0  0  0  0  0  0  0  0  0  0  0  0
    2.0574   -2.5569    0.0000 C   0  0  0  0  0  0  0  0  0  0  0  0
    8.1740    0.9745    0.0000 C   0  0  0  0  0  0  0  0  0  0  0  0
    4.6660   -1.6323    0.0000 H   0  0  0  0  0  0  0  0  0  0  0  0
    6.0690   -0.8223    0.0000 H   0  0  0  0  0  0  0  0  0  0  0  0
    1.4643   -0.8452    0.0000 H   0  0  0  0  0  0  0  0  0  0  0  0
    6.9882    2.3440    0.0000 H   0  0  0  0  0  0  0  0  0  0  0  0
    1.4643    0.8205    0.0000 H   0  0  0  0  0  0  0  0  0  0  0  0
    5.5456    3.1769    0.0000 H   0  0  0  0  0  0  0  0  0  0  0  0
    1.7413   -2.0236    0.0000 H   0  0  0  0  0  0  0  0  0  0  0  0
    1.5241   -2.8731    0.0000 H   0  0  0  0  0  0  0  0  0  0  0  0
    2.3736   -3.0902    0.0000 H   0  0  0  0  0  0  0  0  0  0  0  0
    8.4778    0.4340    0.0000 H   0  0  0  0  0  0  0  0  0  0  0  0
    8.7145    1.2782    0.0000 H   0  0  0  0  0  0  0  0  0  0  0  0
    7.8702    1.5150    0.0000 H   0  0  0  0  0  0  0  0  0  0  0  0
  1 11  1  0  0  0  0
  1 17  1  0  0  0  0
  2 12  1  0  0  0  0
  2 18  1  0  0  0  0
  3  7  2  0  0  0  0
  3 15  1  0  0  0  0
  4  8  2  0  0  0  0
  4 16  1  0  0  0  0
  5  7  1  0  0  0  0
  5  9  1  0  0  0  0
  5 11  2  0  0  0  0
  6  8  1  0  0  0  0
  6 10  1  0  0  0  0
  6 12  2  0  0  0  0
  7  8  1  0  0  0  0
  9 10  2  0  0  0  0
  9 19  1  0  0  0  0
 10 20  1  0  0  0  0
 11 13  1  0  0  0  0
 12 14  1  0  0  0  0
 13 15  2  0  0  0  0
 13 21  1  0  0  0  0
 14 16  2  0  0  0  0
 14 22  1  0  0  0  0
 15 23  1  0  0  0  0
 16 24  1  0  0  0  0
 17 25  1  0  0  0  0
 17 26  1  0  0  0  0
 17 27  1  0  0  0  0
 18 28  1  0  0  0  0
 18 29  1  0  0  0  0
 18 30  1  0  0  0  0
M  END
> <PUBCHEM_COMPOUND_CID>
10462298

> <PUBCHEM_COMPOUND_CANONICALIZED>
1

> <PUBCHEM_CACTVS_COMPLEXITY>
259

> <PUBCHEM_CACTVS_HBOND_ACCEPTOR>
4

> <PUBCHEM_CACTVS_HBOND_DONOR>
0

> <PUBCHEM_CACTVS_ROTATABLE_BOND>
2

> <PUBCHEM_CACTVS_SUBSKEYS>
AAADccBzMAAAAAAAAAAAAAAAAAAAAAAAAAA8WIAAAAAAAACx/gAAHgAAAAAADAzBngY+xvIIFACgAzRnRACCiCQxMiAI2CA+fJgMZuLEsJuUMChmwBnI6AewwPAOQAAAQAACACCAAACAAAQAQAAAAAAAAA==

> <PUBCHEM_IUPAC_OPENEYE_NAME>
4,7-dimethoxy-1,10-phenanthroline

> <PUBCHEM_IUPAC_CAS_NAME>
4,7-dimethoxy-1,10-phenanthroline

> <PUBCHEM_IUPAC_NAME_MARKUP>
4,7-dimethoxy-1,10-phenanthroline

> <PUBCHEM_IUPAC_NAME>
4,7-dimethoxy-1,10-phenanthroline

> <PUBCHEM_IUPAC_SYSTEMATIC_NAME>
4,7-dimethoxy-1,10-phenanthroline

> <PUBCHEM_IUPAC_TRADITIONAL_NAME>
4,7-dimethoxy-1,10-phenanthroline

> <PUBCHEM_IUPAC_INCHI>
InChI=1S/C14H12N2O2/c1-17-11-5-7-15-13-9(11)3-4-10-12(18-2)6-8-16-14(10)13/h3-8H,1-2H3

> <PUBCHEM_IUPAC_INCHIKEY>
ZPGVCQYKXIQWTP-UHFFFAOYSA-N

> <PUBCHEM_XLOGP3_AA>
2.4

> <PUBCHEM_EXACT_MASS>
240.089877630

> <PUBCHEM_MOLECULAR_FORMULA>
C14H12N2O2

> <PUBCHEM_MOLECULAR_WEIGHT>
240.26

> <PUBCHEM_SMILES>
COC1=C2C=CC3=C(C=CN=C3C2=NC=C1)OC

> <PUBCHEM_CONNECTIVITY_SMILES>
COC1=C2C=CC3=C(C=CN=C3C2=NC=C1)OC

> <PUBCHEM_CACTVS_TPSA>
44.2

> <PUBCHEM_MONOISOTOPIC_WEIGHT>
240.089877630

> <PUBCHEM_TOTAL_CHARGE>
0

> <PUBCHEM_HEAVY_ATOM_COUNT>
18

> <PUBCHEM_ATOM_DEF_STEREO_COUNT>
0

> <PUBCHEM_ATOM_UDEF_STEREO_COUNT>
0

> <PUBCHEM_BOND_DEF_STEREO_COUNT>
0

> <PUBCHEM_BOND_UDEF_STEREO_COUNT>
0

> <PUBCHEM_ISOTOPIC_ATOM_COUNT>
0

> <PUBCHEM_COMPONENT_COUNT>
1

> <PUBCHEM_CACTVS_TAUTO_COUNT>
-1

> <PUBCHEM_COORDINATE_TYPE>
1
5
255

> <PUBCHEM_BONDANNOTATIONS>
11  13  8
12  14  8
13  15  8
14  16  8
3  15  8
3  7  8
4  16  8
4  8  8
5  11  8
5  7  8
5  9  8
6  10  8
6  12  8
6  8  8
7  8  8
9  10  8

$$$$
