402
  -OEChem-08202606062D

  3  2  0     0  0  0  0  0  0999 V2000
    2.5369   -0.1550    0.0000 S   0  0  0  0  0  0  0  0  0  0  0  0
    3.0739    0.1550    0.0000 H   0  0  0  0  0  0  0  0  0  0  0  0
    2.0000    0.1550    0.0000 H   0  0  0  0  0  0  0  0  0  0  0  0
  1  2  1  0  0  0  0
  1  3  1  0  0  0  0
M  END
> <PUBCHEM_COMPOUND_CID>
402

> <PUBCHEM_COMPOUND_CANONICALIZED>
1

> <PUBCHEM_CACTVS_COMPLEXITY>
0

> <PUBCHEM_CACTVS_HBOND_ACCEPTOR>
1

> <PUBCHEM_CACTVS_HBOND_DONOR>
1

> <PUBCHEM_CACTVS_ROTATABLE_BOND>
0

> <PUBCHEM_CACTVS_SUBSKEYS>
AAADcQAAAABAAAAAAAAAAAAAAAAAAAAAAAAAAAAAAAAAAAAAAAAAAAAAAAAAAAAAAAAAAAAAAAAAAAAAAAAAAAAAAAAAAAAAAAAAAAAAAAAAAAAAAAAAAAAAAAAAAAAAAAAAAAAAAAAAAAAAAAAAAAAAAA==

> <PUBCHEM_IUPAC_OPENEYE_NAME>
hydrogen sulfide

> <PUBCHEM_IUPAC_CAS_NAME>
sulfane

> <PUBCHEM_IUPAC_NAME_MARKUP>
sulfane

> <PUBCHEM_IUPAC_NAME>
sulfane

> <PUBCHEM_IUPAC_SYSTEMATIC_NAME>
sulfane

> <PUBCHEM_IUPAC_TRADITIONAL_NAME>
hydrogen sulfide

> <PUBCHEM_IUPAC_INCHI>
InChI=1S/H2S/h1H2

> <PUBCHEM_IUPAC_INCHIKEY>
RWSOTUBLDIXVET-UHFFFAOYSA-N

> <PUBCHEM_XLOGP3_AA>
0.5

> <PUBCHEM_EXACT_MASS>
33.98772124

> <PUBCHEM_MOLECULAR_FORMULA>
H2S

> <PUBCHEM_MOLECULAR_WEIGHT>
34.08

> <PUBCHEM_SMILES>
S

> <PUBCHEM_CONNECTIVITY_SMILES>
S

> <PUBCHEM_CACTVS_TPSA>
1

> <PUBCHEM_MONOISOTOPIC_WEIGHT>
33.98772124

> <PUBCHEM_TOTAL_CHARGE>
0

> <PUBCHEM_HEAVY_ATOM_COUNT>
1

> <PUBCHEM_ATOM_DEF_STEREO_COUNT>
0

> <PUBCHEM_ATOM_UDEF_STEREO_COUNT>
0

> <PUBCHEM_BOND_DEF_STEREO_COUNT>
0

> <PUBCHEM_BOND_UDEF_STEREO_COUNT>
0

> <PUBCHEM_ISOTOPIC_ATOM_COUNT>
0

> <PUBCHEM_COMPONENT_COUNT>
1

> <PUBCHEM_CACTVS_TAUTO_COUNT>
-1

> <PUBCHEM_COORDINATE_TYPE>
1
5
255

$$$$
