89594
  -OEChem-08202606062D

 26 27  0     1  0  0  0  0  0999 V2000
    2.9511    1.3184    0.0000 N   0  0  3  0  0  0  0  0  0  0  0  0
    4.6261   -1.7694    0.0000 N   0  0  0  0  0  0  0  0  0  0  0  0
    3.7601    0.7306    0.0000 C   0  0  1  0  0  0  0  0  0  0  0  0
    4.5691    1.3184    0.0000 C   0  0  0  0  0  0  0  0  0  0  0  0
    4.2601    2.2694    0.0000 C   0  0  0  0  0  0  0  0  0  0  0  0
    3.2601    2.2694    0.0000 C   0  0  0  0  0  0  0  0  0  0  0  0
    3.7601   -0.2694    0.0000 C   0  0  0  0  0  0  0  0  0  0  0  0
    2.0000    1.0094    0.0000 C   0  0  0  0  0  0  0  0  0  0  0  0
    2.8941   -0.7694    0.0000 C   0  0  0  0  0  0  0  0  0  0  0  0
    4.6261   -0.7694    0.0000 C   0  0  0  0  0  0  0  0  0  0  0  0
    2.8941   -1.7694    0.0000 C   0  0  0  0  0  0  0  0  0  0  0  0
    3.7601   -2.2694    0.0000 C   0  0  0  0  0  0  0  0  0  0  0  0
    4.3125    0.4491    0.0000 H   0  0  0  0  0  0  0  0  0  0  0  0
    4.8791    0.7814    0.0000 H   0  0  0  0  0  0  0  0  0  0  0  0
    5.1355    1.5705    0.0000 H   0  0  0  0  0  0  0  0  0  0  0  0
    4.8665    2.3983    0.0000 H   0  0  0  0  0  0  0  0  0  0  0  0
    4.1953    2.8860    0.0000 H   0  0  0  0  0  0  0  0  0  0  0  0
    3.3249    2.8860    0.0000 H   0  0  0  0  0  0  0  0  0  0  0  0
    2.6536    2.3983    0.0000 H   0  0  0  0  0  0  0  0  0  0  0  0
    1.8084    1.5990    0.0000 H   0  0  0  0  0  0  0  0  0  0  0  0
    1.4103    0.8178    0.0000 H   0  0  0  0  0  0  0  0  0  0  0  0
    2.1916    0.4197    0.0000 H   0  0  0  0  0  0  0  0  0  0  0  0
    2.3571   -0.4594    0.0000 H   0  0  0  0  0  0  0  0  0  0  0  0
    5.1630   -0.4594    0.0000 H   0  0  0  0  0  0  0  0  0  0  0  0
    2.3571   -2.0794    0.0000 H   0  0  0  0  0  0  0  0  0  0  0  0
    3.7601   -2.8894    0.0000 H   0  0  0  0  0  0  0  0  0  0  0  0
  1  3  1  0  0  0  0
  1  6  1  0  0  0  0
  1  8  1  0  0  0  0
  2 10  1  0  0  0  0
  2 12  2  0  0  0  0
  3  4  1  0  0  0  0
  3  7  1  1  0  0  0
  3 13  1  0  0  0  0
  4  5  1  0  0  0  0
  4 14  1  0  0  0  0
  4 15  1  0  0  0  0
  5  6  1  0  0  0  0
  5 16  1  0  0  0  0
  5 17  1  0  0  0  0
  6 18  1  0  0  0  0
  6 19  1  0  0  0  0
  7  9  1  0  0  0  0
  7 10  2  0  0  0  0
  8 20  1  0  0  0  0
  8 21  1  0  0  0  0
  8 22  1  0  0  0  0
  9 11  2  0  0  0  0
  9 23  1  0  0  0  0
 10 24  1  0  0  0  0
 11 12  1  0  0  0  0
 11 25  1  0  0  0  0
 12 26  1  0  0  0  0
M  END
> <PUBCHEM_COMPOUND_CID>
89594

> <PUBCHEM_COMPOUND_CANONICALIZED>
1

> <PUBCHEM_CACTVS_COMPLEXITY>
147

> <PUBCHEM_CACTVS_HBOND_ACCEPTOR>
2

> <PUBCHEM_CACTVS_HBOND_DONOR>
0

> <PUBCHEM_CACTVS_ROTATABLE_BOND>
1

> <PUBCHEM_CACTVS_SUBSKEYS>
AAADccBzAAAAAAAAAAAAAAAAAAAAAWAAAAAsAAAAAAAAAAABgAAAHAAAAAAADCjBGgQ+gJMIEACgAjBnRACCgCAxAiAI2CA4ZJgIIOLA0ZGEIAhggADIyAcQgIAOAAAAAAAAAAAAAAAAAAAAAAAAAAAAAA==

> <PUBCHEM_IUPAC_OPENEYE_NAME>
3-[(2S)-1-methylpyrrolidin-2-yl]pyridine

> <PUBCHEM_IUPAC_CAS_NAME>
3-[(2S)-1-methyl-2-pyrrolidinyl]pyridine

> <PUBCHEM_IUPAC_NAME_MARKUP>
3-[(2<I>S</I>)-1-methylpyrrolidin-2-yl]pyridine

> <PUBCHEM_IUPAC_NAME>
3-[(2S)-1-methylpyrrolidin-2-yl]pyridine

> <PUBCHEM_IUPAC_SYSTEMATIC_NAME>
3-[(2S)-1-methylpyrrolidin-2-yl]pyridine

> <PUBCHEM_IUPAC_TRADITIONAL_NAME>
3-[(2S)-1-methylpyrrolidin-2-yl]pyridine

> <PUBCHEM_IUPAC_INCHI>
InChI=1S/C10H14N2/c1-12-7-3-5-10(12)9-4-2-6-11-8-9/h2,4,6,8,10H,3,5,7H2,1H3/t10-/m0/s1

> <PUBCHEM_IUPAC_INCHIKEY>
SNICXCGAKADSCV-JTQLQIEISA-N

> <PUBCHEM_XLOGP3>
1.2

> <PUBCHEM_EXACT_MASS>
162.115698455

> <PUBCHEM_MOLECULAR_FORMULA>
C10H14N2

> <PUBCHEM_MOLECULAR_WEIGHT>
162.23

> <PUBCHEM_SMILES>
CN1CCC[C@H]1C2=CN=CC=C2

> <PUBCHEM_CONNECTIVITY_SMILES>
CN1CCCC1C2=CN=CC=C2

> <PUBCHEM_CACTVS_TPSA>
16.1

> <PUBCHEM_MONOISOTOPIC_WEIGHT>
162.115698455

> <PUBCHEM_TOTAL_CHARGE>
0

> <PUBCHEM_HEAVY_ATOM_COUNT>
12

> <PUBCHEM_ATOM_DEF_STEREO_COUNT>
1

> <PUBCHEM_ATOM_UDEF_STEREO_COUNT>
0

> <PUBCHEM_BOND_DEF_STEREO_COUNT>
0

> <PUBCHEM_BOND_UDEF_STEREO_COUNT>
0

> <PUBCHEM_ISOTOPIC_ATOM_COUNT>
0

> <PUBCHEM_COMPONENT_COUNT>
1

> <PUBCHEM_CACTVS_TAUTO_COUNT>
-1

> <PUBCHEM_COORDINATE_TYPE>
1
5
255

> <PUBCHEM_BONDANNOTATIONS>
11  12  8
2  10  8
2  12  8
3  7  5
7  10  8
7  9  8
9  11  8

$$$$
