10975657
  -OEChem-08202606063D

 20 20  0     1  0  0  0  0  0999 V2000
   -0.1509   -1.7832    0.4100 O   0  0  0  0  0  0  0  0  0  0  0  0
    0.2766    1.3490   -1.1447 O   0  0  0  0  0  0  0  0  0  0  0  0
   -2.0291    1.3725    0.5022 O   0  0  0  0  0  0  0  0  0  0  0  0
    2.7018    0.4717   -0.0890 O   0  0  0  0  0  0  0  0  0  0  0  0
   -1.5432   -0.7862   -1.2263 O   0  0  0  0  0  0  0  0  0  0  0  0
    0.3704    1.0655    0.2517 C   0  0  1  0  0  0  0  0  0  0  0  0
   -0.9502    0.4863    0.7668 C   0  0  2  0  0  0  0  0  0  0  0  0
    1.4766    0.0343    0.4813 C   0  0  1  0  0  0  0  0  0  0  0  0
   -1.2447   -0.8929    0.1634 C   0  0  2  0  0  0  0  0  0  0  0  0
    1.0928   -1.3171   -0.1156 C   0  0  0  0  0  0  0  0  0  0  0  0
    0.6102    2.0137    0.7451 H   0  0  0  0  0  0  0  0  0  0  0  0
   -0.8648    0.3810    1.8560 H   0  0  0  0  0  0  0  0  0  0  0  0
    1.6309   -0.0826    1.5606 H   0  0  0  0  0  0  0  0  0  0  0  0
   -2.1331   -1.3114    0.6499 H   0  0  0  0  0  0  0  0  0  0  0  0
    1.0461   -1.2826   -1.2109 H   0  0  0  0  0  0  0  0  0  0  0  0
    1.8603   -2.0600    0.1289 H   0  0  0  0  0  0  0  0  0  0  0  0
   -0.4730    1.9565   -1.2666 H   0  0  0  0  0  0  0  0  0  0  0  0
   -2.8370    0.9679    0.8614 H   0  0  0  0  0  0  0  0  0  0  0  0
    2.5517    0.6169   -1.0389 H   0  0  0  0  0  0  0  0  0  0  0  0
   -2.1093   -1.5423   -1.4568 H   0  0  0  0  0  0  0  0  0  0  0  0
  1  9  1  0  0  0  0
  1 10  1  0  0  0  0
  2  6  1  0  0  0  0
  2 17  1  0  0  0  0
  3  7  1  0  0  0  0
  3 18  1  0  0  0  0
  4  8  1  0  0  0  0
  4 19  1  0  0  0  0
  5  9  1  0  0  0  0
  5 20  1  0  0  0  0
  6  7  1  0  0  0  0
  6  8  1  0  0  0  0
  6 11  1  0  0  0  0
  7  9  1  0  0  0  0
  7 12  1  0  0  0  0
  8 10  1  0  0  0  0
  8 13  1  0  0  0  0
  9 14  1  0  0  0  0
 10 15  1  0  0  0  0
 10 16  1  0  0  0  0
M  END
> <PUBCHEM_COMPOUND_CID>
10975657

> <PUBCHEM_CONFORMER_RMSD>
0.4

> <PUBCHEM_CONFORMER_DIVERSEORDER>
3
1
2
4

> <PUBCHEM_MMFF94_PARTIAL_CHARGES>
14
1 -0.56
10 0.28
17 0.4
18 0.4
19 0.4
2 -0.68
20 0.4
3 -0.68
4 -0.68
5 -0.68
6 0.28
7 0.28
8 0.28
9 0.56

> <PUBCHEM_EFFECTIVE_ROTOR_COUNT>
1.2

> <PUBCHEM_PHARMACOPHORE_FEATURES>
10
1 1 acceptor
1 2 acceptor
1 2 donor
1 3 acceptor
1 3 donor
1 4 acceptor
1 4 donor
1 5 acceptor
1 5 donor
6 1 6 7 8 9 10 rings

> <PUBCHEM_HEAVY_ATOM_COUNT>
10

> <PUBCHEM_ATOM_DEF_STEREO_COUNT>
3

> <PUBCHEM_ATOM_UDEF_STEREO_COUNT>
1

> <PUBCHEM_BOND_DEF_STEREO_COUNT>
0

> <PUBCHEM_BOND_UDEF_STEREO_COUNT>
0

> <PUBCHEM_ISOTOPIC_ATOM_COUNT>
0

> <PUBCHEM_COMPONENT_COUNT>
1

> <PUBCHEM_CACTVS_TAUTO_COUNT>
1

> <PUBCHEM_CONFORMER_ID>
00A779A900000003

> <PUBCHEM_MMFF94_ENERGY>
23.6497

> <PUBCHEM_FEATURE_SELFOVERLAP>
50.813

> <PUBCHEM_SHAPE_FINGERPRINT>
12423570 1 16670479452861109285
13024252 1 14201385110573213448
137420 1 11434053783726867729
16945 1 18271796981884316618
18185500 45 18413385436436532395
21040471 1 18340493265865360208
23235685 24 18336546109257876731
23552423 10 18408609132535757090
241688 4 18337384920692276082
29004967 10 17531823371558164088
5084963 1 17532931833860751034

> <PUBCHEM_SHAPE_MULTIPOLES>
176.45
2.42
1.66
0.94
0.72
0.25
0.21
-0.39
-0.02
-0.24
0.04
-0.21
-0.08
-0.26

> <PUBCHEM_SHAPE_SELFOVERLAP>
351.926

> <PUBCHEM_SHAPE_VOLUME>
102.5

> <PUBCHEM_COORDINATE_TYPE>
2
5
10

$$$$
