7489
  -OEChem-08202606063D

 18 18  0     0  0  0  0  0  0999 V2000
   -3.3965   -1.1836   -0.0007 O   0  0  0  0  0  0  0  0  0  0  0  0
    3.3966    1.1837   -0.0003 O   0  0  0  0  0  0  0  0  0  0  0  0
   -3.5423    1.0847    0.0000 O   0  0  0  0  0  0  0  0  0  0  0  0
    3.5423   -1.0846    0.0002 O   0  0  0  0  0  0  0  0  0  0  0  0
   -1.3945    0.0305    0.0005 C   0  0  0  0  0  0  0  0  0  0  0  0
    1.3946   -0.0305   -0.0005 C   0  0  0  0  0  0  0  0  0  0  0  0
   -0.6710    1.2230    0.0003 C   0  0  0  0  0  0  0  0  0  0  0  0
    0.7235    1.1924   -0.0003 C   0  0  0  0  0  0  0  0  0  0  0  0
   -0.7237   -1.1925    0.0003 C   0  0  0  0  0  0  0  0  0  0  0  0
    0.6709   -1.2231   -0.0002 C   0  0  0  0  0  0  0  0  0  0  0  0
   -2.8482    0.0625    0.0003 C   0  0  0  0  0  0  0  0  0  0  0  0
    2.8484   -0.0624    0.0003 C   0  0  0  0  0  0  0  0  0  0  0  0
   -1.1753    2.1858    0.0004 H   0  0  0  0  0  0  0  0  0  0  0  0
    1.2476    2.1441   -0.0003 H   0  0  0  0  0  0  0  0  0  0  0  0
   -1.2477   -2.1442    0.0005 H   0  0  0  0  0  0  0  0  0  0  0  0
    1.1752   -2.1859   -0.0001 H   0  0  0  0  0  0  0  0  0  0  0  0
   -4.3770   -1.1508   -0.0013 H   0  0  0  0  0  0  0  0  0  0  0  0
    4.3770    1.1511   -0.0004 H   0  0  0  0  0  0  0  0  0  0  0  0
  1 11  1  0  0  0  0
  1 17  1  0  0  0  0
  2 12  1  0  0  0  0
  2 18  1  0  0  0  0
  3 11  2  0  0  0  0
  4 12  2  0  0  0  0
  5  7  2  0  0  0  0
  5  9  1  0  0  0  0
  5 11  1  0  0  0  0
  6  8  2  0  0  0  0
  6 10  1  0  0  0  0
  6 12  1  0  0  0  0
  7  8  1  0  0  0  0
  7 13  1  0  0  0  0
  8 14  1  0  0  0  0
  9 10  2  0  0  0  0
  9 15  1  0  0  0  0
 10 16  1  0  0  0  0
M  END
> <PUBCHEM_COMPOUND_CID>
7489

> <PUBCHEM_CONFORMER_RMSD>
0.6

> <PUBCHEM_CONFORMER_DIVERSEORDER>
1
2
3

> <PUBCHEM_MMFF94_PARTIAL_CHARGES>
18
1 -0.65
10 -0.15
11 0.63
12 0.63
13 0.15
14 0.15
15 0.15
16 0.15
17 0.5
18 0.5
2 -0.65
3 -0.57
4 -0.57
5 0.09
6 0.09
7 -0.15
8 -0.15
9 -0.15

> <PUBCHEM_EFFECTIVE_ROTOR_COUNT>
2

> <PUBCHEM_PHARMACOPHORE_FEATURES>
7
1 1 acceptor
1 2 acceptor
1 3 acceptor
1 4 acceptor
3 1 3 11 anion
3 2 4 12 anion
6 5 6 7 8 9 10 rings

> <PUBCHEM_HEAVY_ATOM_COUNT>
12

> <PUBCHEM_ATOM_DEF_STEREO_COUNT>
0

> <PUBCHEM_ATOM_UDEF_STEREO_COUNT>
0

> <PUBCHEM_BOND_DEF_STEREO_COUNT>
0

> <PUBCHEM_BOND_UDEF_STEREO_COUNT>
0

> <PUBCHEM_ISOTOPIC_ATOM_COUNT>
0

> <PUBCHEM_COMPONENT_COUNT>
1

> <PUBCHEM_CACTVS_TAUTO_COUNT>
1

> <PUBCHEM_CONFORMER_ID>
00001D4100000001

> <PUBCHEM_MMFF94_ENERGY>
35.5837

> <PUBCHEM_FEATURE_SELFOVERLAP>
35.638

> <PUBCHEM_SHAPE_FINGERPRINT>
10130415 120 18335697226536742088
10219947 1 18411139134133422284
10608611 8 18410852170194184809
11062470 55 18411138030379737089
11132069 177 18412537700112937112
12032990 46 18410862061493201058
14144814 61 18410856572524691610
14325111 11 18410856572524730433
14993402 34 18410855490192933135
16945 1 18410856529575018503
18186145 218 18113615668671604294
193761 8 17546165203551387650
20201158 50 18411700945984021559
20645476 183 17896339058778452430
20645477 70 18342454798862517287
23235685 24 18410569582815279973
23402539 116 18272359859150146822
23402655 69 18196919008400855725
23463225 33 18336544928416345674
23559900 14 18342457033178700130
2748010 2 18194401323296751670
528886 8 18411694366315442923

> <PUBCHEM_SHAPE_MULTIPOLES>
223.48
5.79
1.46
0.58
0
0
0
0
0
0
0
0
0
0

> <PUBCHEM_SHAPE_SELFOVERLAP>
475.472

> <PUBCHEM_SHAPE_VOLUME>
124.1

> <PUBCHEM_COORDINATE_TYPE>
2
5
10

$$$$
